LTspice 24.0.12 for Windows
Circuit: * C:\Users\HP\Desktop\Sem5\VD\LTSPICE SIMULATIONS\D-FlipFlop.asc
Start Time: Sat Nov  9 07:42:47 2024
solver = Normal
Maximum thread count: 8
tnom = 27
temp = 27
method = modified trap
WARNING: Node N003 is floating.
WARNING: Node N009 is floating.
WARNING: Node N012 is floating.
WARNING: Node N011 is floating.
WARNING: Node N004 is floating.
WARNING: Node N010 is floating.
WARNING: Node N014 is floating.
WARNING: Node N013 is floating.

Direct Newton iteration for .op point succeeded.
Total elapsed time: 0.137 seconds.

