LTspice 24.0.12 for Windows
Circuit: * C:\Users\HP\Desktop\Sem5\VD\lab file\Draft1.asc
Start Time: Tue Nov  5 19:36:29 2024
solver = Normal
Maximum thread count: 8
tnom = 27
temp = 27
method = modified trap
WARNING: Node N010 is floating.
WARNING: Node N012 is floating.
WARNING: Node N019 is floating.
WARNING: Node N020 is floating.
WARNING: Node N013 is floating.
WARNING: Node N017 is floating.
WARNING: Node N002 is floating.
WARNING: Node N007 is floating.
WARNING: Node N021 is floating.
WARNING: Node N024 is floating.

Instance "m7": Length shorter than recommended for a level 1 MOSFET.
Instance "m7": Width narrower than recommended for a level 1 MOSFET.
Instance "m15": Length shorter than recommended for a level 1 MOSFET.
Instance "m15": Width narrower than recommended for a level 1 MOSFET.
Instance "m8": Length shorter than recommended for a level 1 MOSFET.
Instance "m8": Width narrower than recommended for a level 1 MOSFET.
Instance "m9": Length shorter than recommended for a level 1 MOSFET.
Instance "m9": Width narrower than recommended for a level 1 MOSFET.
Instance "m16": Length shorter than recommended for a level 1 MOSFET.
Instance "m16": Width narrower than recommended for a level 1 MOSFET.
Instance "m17": Length shorter than recommended for a level 1 MOSFET.
Instance "m17": Width narrower than recommended for a level 1 MOSFET.
Direct Newton iteration for .op point succeeded.
Changing Tseed to 5e-10
Changing Tseed to 5e-12
Changing Tseed to 5e-09
Changing Tseed to 5e-13
Total elapsed time: 0.217 seconds.

