LTspice 24.0.12 for Windows
Circuit: * C:\Users\HP\Desktop\Sem5\VD\LTSPICE SIMULATIONS\JKFF.asc
Start Time: Sat Nov  9 07:35:15 2024
solver = Normal
Maximum thread count: 8
tnom = 27
temp = 27
method = modified trap
WARNING: Node N021 is floating.
WARNING: Node N026 is floating.
WARNING: Node N034 is floating.
WARNING: Node N036 is floating.
WARNING: Node N002 is floating.
WARNING: Node N006 is floating.
WARNING: Node N015 is floating.
WARNING: Node N018 is floating.

Instance "m15": Length shorter than recommended for a level 1 MOSFET.
Instance "m15": Width narrower than recommended for a level 1 MOSFET.
Instance "m21": Length shorter than recommended for a level 1 MOSFET.
Instance "m21": Width narrower than recommended for a level 1 MOSFET.
Instance "m27": Length shorter than recommended for a level 1 MOSFET.
Instance "m27": Width narrower than recommended for a level 1 MOSFET.
Instance "m5": Length shorter than recommended for a level 1 MOSFET.
Instance "m5": Width narrower than recommended for a level 1 MOSFET.
Instance "m33": Length shorter than recommended for a level 1 MOSFET.
Instance "m33": Width narrower than recommended for a level 1 MOSFET.
Instance "m39": Length shorter than recommended for a level 1 MOSFET.
Instance "m39": Width narrower than recommended for a level 1 MOSFET.
Instance "m1": Length shorter than recommended for a level 1 MOSFET.
Instance "m1": Width narrower than recommended for a level 1 MOSFET.
Instance "m9": Length shorter than recommended for a level 1 MOSFET.
Instance "m9": Width narrower than recommended for a level 1 MOSFET.
Instance "m16": Length shorter than recommended for a level 1 MOSFET.
Instance "m16": Width narrower than recommended for a level 1 MOSFET.
Instance "m17": Length shorter than recommended for a level 1 MOSFET.
Instance "m17": Width narrower than recommended for a level 1 MOSFET.
Instance "m22": Length shorter than recommended for a level 1 MOSFET.
Instance "m22": Width narrower than recommended for a level 1 MOSFET.
Instance "m23": Length shorter than recommended for a level 1 MOSFET.
Instance "m23": Width narrower than recommended for a level 1 MOSFET.
Instance "m28": Length shorter than recommended for a level 1 MOSFET.
Instance "m28": Width narrower than recommended for a level 1 MOSFET.
Instance "m29": Length shorter than recommended for a level 1 MOSFET.
Instance "m29": Width narrower than recommended for a level 1 MOSFET.
Instance "m6": Length shorter than recommended for a level 1 MOSFET.
Instance "m6": Width narrower than recommended for a level 1 MOSFET.
Instance "m11": Length shorter than recommended for a level 1 MOSFET.
Instance "m11": Width narrower than recommended for a level 1 MOSFET.
Instance "m34": Length shorter than recommended for a level 1 MOSFET.
Instance "m34": Width narrower than recommended for a level 1 MOSFET.
Instance "m35": Length shorter than recommended for a level 1 MOSFET.
Instance "m35": Width narrower than recommended for a level 1 MOSFET.
Instance "m40": Length shorter than recommended for a level 1 MOSFET.
Instance "m40": Width narrower than recommended for a level 1 MOSFET.
Instance "m41": Length shorter than recommended for a level 1 MOSFET.
Instance "m41": Width narrower than recommended for a level 1 MOSFET.
Instance "m2": Length shorter than recommended for a level 1 MOSFET.
Instance "m2": Width narrower than recommended for a level 1 MOSFET.
Instance "m3": Length shorter than recommended for a level 1 MOSFET.
Instance "m3": Width narrower than recommended for a level 1 MOSFET.
Instance "m10": Length shorter than recommended for a level 1 MOSFET.
Instance "m10": Width narrower than recommended for a level 1 MOSFET.
Instance "m31": Length shorter than recommended for a level 1 MOSFET.
Instance "m31": Width narrower than recommended for a level 1 MOSFET.
Direct Newton iteration for .op point succeeded.
Changing Tseed to 5e-10
Changing Tseed to 5e-12
Changing Tseed to 5e-09
Changing Tseed to 5e-13
Heightened Def Con from 2.723e-09 +++++++++++++++++++++to 2.73862e-09
Heightened Def Con from 2.73862e-09 +++++++++++++++++++++to 2.75425e-09
Heightened Def Con from 2.75425e-09 +++++++++++++++++++++to 2.7562e-09
Heightened Def Con from 2.7562e-09 +++++++++++++++++++++to 2.75644e-09
Heightened Def Con from 2.75644e-09 +++++++++++++++++++++to 2.75647e-09
Heightened Def Con from 2.75647e-09 +++++++++++++++++++++to 2.7565e-09
Heightened Def Con from 2.7565e-09 +++++++++++++++++++++to 2.75653e-09
Heightened Def Con from 2.75653e-09 +++++++++++++++++++++to 2.75656e-09
Heightened Def Con from 2.75656e-09 +++++++++++++++++++++to 2.7566e-09
Heightened Def Con from 2.7566e-09 +++++++++++++++++++++to 2.75663e-09
Heightened Def Con from 2.75663e-09 +++++++++++++++++++++to 2.75663e-09
Heightened Def Con from 2.75663e-09 +++++++++++++++++++++to 2.75663e-09
Heightened Def Con from 2.75663e-09 +++++++++++++++++++++to 2.75664e-09
Heightened Def Con from 2.75664e-09 +++++++++++++++++++++to 2.75664e-09
Heightened Def Con from 2.75664e-09 +++++++++++++++++++++to 2.75664e-09
Heightened Def Con from 2.75664e-09 +++++++++++++++++++++to 2.75664e-09
Heightened Def Con from 2.75664e-09 +++++++++++++++++++++to 2.75664e-09
Heightened Def Con from 2.75664e-09 +++++++++++++++++++++to 2.75664e-09
Heightened Def Con from 2.75664e-09 +++++++++++++++++++++to 2.75664e-09
Heightened Def Con from 2.75664e-09 +++++++++++++++++++++to 2.75664e-09
Heightened Def Con from 2.75664e-09 ++++++++++++++++++++++to 3.75664e-09
Heightened Def Con from 3.75664e-09 ++++++++++++++++++++++to 5e-09
Heightened Def Con from 5e-09 ++++++++++++++++++++++to 5.1e-09
Heightened Def Con from 5.1e-09 ++++++++++++++++++++++to 6.1e-09
Heightened Def Con from 6.1e-09 ++++++++++++++++++++++to 7.1e-09
Heightened Def Con from 7.1e-09 ++++++++++++++++++++++to 8.1e-09
Heightened Def Con from 8.1e-09 ++++++++++++++++++++++to 9.1e-09
Heightened Def Con from 9.1e-09 ++++++++++++++++++++++to 1.01e-08
Heightened Def Con from 1.01e-08 ++++++++++++++++++++++to 1.11e-08
Heightened Def Con from 1.11e-08 ++++++++++++++++++++++to 1.21e-08
Heightened Def Con from 1.21e-08 ++++++++++++++++++++++to 1.31e-08
Heightened Def Con from 1.31e-08 ++++++++++++++++++++++to 1.41e-08
Heightened Def Con from 1.41e-08 ++++++++++++++++++++++to 1.51e-08
Heightened Def Con from 1.51e-08 ++++++++++++++++++++++to 1.61e-08
Heightened Def Con from 1.61e-08 ++++++++++++++++++++++to 1.71e-08
Heightened Def Con from 1.71e-08 ++++++++++++++++++++++to 1.81e-08
Heightened Def Con from 1.81e-08 ++++++++++++++++++++++to 1.91e-08
Heightened Def Con from 1.91e-08 ++++++++++++++++++++++to 2.01e-08
Heightened Def Con from 2.01e-08 ++++++++++++++++++++++to 2.11e-08
Heightened Def Con from 2.11e-08 ++++++++++++++++++++++to 2.21e-08
Heightened Def Con from 2.21e-08 ++++++++++++++++++++++to 2.31e-08
Heightened Def Con from 2.31e-08 ++++++++++++++++++++++to 2.41e-08
Heightened Def Con from 2.41e-08 ++++++++++++++++++++++to 2.51e-08
Heightened Def Con from 2.51e-08 ++++++++++++++++++++++to 2.61e-08
Heightened Def Con from 2.61e-08 ++++++++++++++++++++++to 2.71e-08
Heightened Def Con from 2.71e-08 ++++++++++++++++++++++to 2.81e-08
Heightened Def Con from 2.81e-08 ++++++++++++++++++++++to 2.91e-08
Heightened Def Con from 2.91e-08 ++++++++++++++++++++++to 3.01e-08
Heightened Def Con from 3.01e-08 ++++++++++++++++++++++to 3.11e-08
Heightened Def Con from 3.11e-08 ++++++++++++++++++++++to 3.21e-08
Heightened Def Con from 3.21e-08 ++++++++++++++++++++++to 3.31e-08
Heightened Def Con from 3.31e-08 ++++++++++++++++++++++to 3.41e-08
Heightened Def Con from 3.41e-08 ++++++++++++++++++++++to 3.51e-08
Heightened Def Con from 3.51e-08 ++++++++++++++++++++++to 3.61e-08
Heightened Def Con from 3.61e-08 ++++++++++++++++++++++to 3.71e-08
Heightened Def Con from 3.71e-08 ++++++++++++++++++++++to 3.81e-08
Heightened Def Con from 3.81e-08 ++++++++++++++++++++++to 3.91e-08
Heightened Def Con from 3.91e-08 ++++++++++++++++++++++to 4.01e-08
Heightened Def Con from 4.01e-08 ++++++++++++++++++++++to 4.11e-08
Heightened Def Con from 4.11e-08 ++++++++++++++++++++++to 4.21e-08
Heightened Def Con from 4.21e-08 ++++++++++++++++++++++to 4.31e-08
Heightened Def Con from 4.31e-08 ++++++++++++++++++++++to 4.41e-08
Heightened Def Con from 4.41e-08 ++++++++++++++++++++++to 4.51e-08
Heightened Def Con from 4.51e-08 ++++++++++++++++++++++to 4.61e-08
Heightened Def Con from 4.61e-08 ++++++++++++++++++++++to 4.71e-08
Heightened Def Con from 4.71e-08 ++++++++++++++++++++++to 4.81e-08
Heightened Def Con from 4.81e-08 ++++++++++++++++++++++to 4.91e-08
Heightened Def Con from 4.91e-08 ++++++++++++++++++++++to 5.01e-08
Heightened Def Con from 5.01e-08 ++++++++++++++++++++++to 5.11e-08
Heightened Def Con from 5.11e-08 ++++++++++++++++++++++to 5.21e-08
Heightened Def Con from 5.21e-08 ++++++++++++++++++++++to 5.31e-08
Heightened Def Con from 5.31e-08 ++++++++++++++++++++++to 5.41e-08
Heightened Def Con from 5.41e-08 ++++++++++++++++++++++to 5.51e-08
Heightened Def Con from 5.51e-08 ++++++++++++++++++++++to 5.61e-08
Heightened Def Con from 5.61e-08 ++++++++++++++++++++++to 5.71e-08
Heightened Def Con from 5.71e-08 ++++++++++++++++++++++to 5.81e-08
Heightened Def Con from 5.81e-08 ++++++++++++++++++++++to 5.91e-08
Heightened Def Con from 5.91e-08 ++++++++++++++++++++++to 6.01e-08
Heightened Def Con from 6.01e-08 ++++++++++++++++++++++to 6.11e-08
Heightened Def Con from 6.11e-08 ++++++++++++++++++++++to 6.21e-08
Heightened Def Con from 6.21e-08 ++++++++++++++++++++++to 6.31e-08
Heightened Def Con from 6.31e-08 ++++++++++++++++++++++to 6.41e-08
Heightened Def Con from 6.41e-08 ++++++++++++++++++++++to 6.51e-08
Heightened Def Con from 6.51e-08 ++++++++++++++++++++++to 6.61e-08
Heightened Def Con from 6.61e-08 ++++++++++++++++++++++to 6.71e-08
Heightened Def Con from 6.71e-08 ++++++++++++++++++++++to 6.81e-08
Heightened Def Con from 6.81e-08 ++++++++++++++++++++++to 6.91e-08
Heightened Def Con from 6.91e-08 ++++++++++++++++++++++to 7.01e-08
Heightened Def Con from 7.01e-08 ++++++++++++++++++++++to 7.11e-08
Heightened Def Con from 7.11e-08 ++++++++++++++++++++++to 7.21e-08
Heightened Def Con from 7.21e-08 ++++++++++++++++++++++to 7.31e-08
Heightened Def Con from 7.31e-08 ++++++++++++++++++++++to 7.41e-08
Heightened Def Con from 7.41e-08 ++++++++++++++++++++++to 7.51e-08
Heightened Def Con from 7.51e-08 ++++++++++++++++++++++to 7.61e-08
Heightened Def Con from 7.61e-08 ++++++++++++++++++++++to 7.71e-08
Heightened Def Con from 7.71e-08 ++++++++++++++++++++++to 7.81e-08
Heightened Def Con from 7.81e-08 ++++++++++++++++++++++to 7.91e-08
Heightened Def Con from 7.91e-08 ++++++++++++++++++++++to 8.01e-08
Heightened Def Con from 8.01e-08 ++++++++++++++++++++++to 8.11e-08
Heightened Def Con from 8.11e-08 ++++++++++++++++++++++to 8.21e-08
Heightened Def Con from 8.21e-08 ++++++++++++++++++++++to 8.31e-08
Heightened Def Con from 8.31e-08 ++++++++++++++++++++++to 8.41e-08
Heightened Def Con from 8.41e-08 ++++++++++++++++++++++to 8.51e-08
Heightened Def Con from 8.51e-08 ++++++++++++++++++++++to 8.61e-08
Heightened Def Con from 8.61e-08 ++++++++++++++++++++++to 8.71e-08
Heightened Def Con from 8.71e-08 ++++++++++++++++++++++to 8.81e-08
Heightened Def Con from 8.81e-08 ++++++++++++++++++++++to 8.91e-08
Heightened Def Con from 8.91e-08 ++++++++++++++++++++++to 9.01e-08
Heightened Def Con from 9.01e-08 ++++++++++++++++++++++to 9.11e-08
Heightened Def Con from 9.11e-08 ++++++++++++++++++++++to 9.21e-08
Heightened Def Con from 9.21e-08 ++++++++++++++++++++++to 9.31e-08
Heightened Def Con from 9.31e-08 ++++++++++++++++++++++to 9.41e-08
Heightened Def Con from 9.41e-08 ++++++++++++++++++++++to 9.51e-08
Heightened Def Con from 9.51e-08 ++++++++++++++++++++++to 9.61e-08
Heightened Def Con from 9.61e-08 ++++++++++++++++++++++to 9.71e-08
Heightened Def Con from 9.71e-08 ++++++++++++++++++++++to 9.81e-08
Heightened Def Con from 9.81e-08 ++++++++++++++++++++++to 9.91e-08
Heightened Def Con from 9.91e-08 ++++++++++++++++++++++to 1.001e-07
Heightened Def Con from 1.001e-07 ++++++++++++++++++++++to 1.011e-07
Heightened Def Con from 1.011e-07 ++++++++++++++++++++++to 1.021e-07
Heightened Def Con from 1.021e-07 ++++++++++++++++++++++to 1.031e-07
Heightened Def Con from 1.031e-07 ++++++++++++++++++++++to 1.041e-07
Heightened Def Con from 1.041e-07 ++++++++++++++++++++++to 1.051e-07
Heightened Def Con from 1.051e-07 ++++++++++++++++++++++to 1.061e-07
Heightened Def Con from 1.061e-07 ++++++++++++++++++++++to 1.071e-07
Heightened Def Con from 1.071e-07 ++++++++++++++++++++++to 1.081e-07
Heightened Def Con from 1.081e-07 ++++++++++++++++++++++to 1.091e-07
Heightened Def Con from 1.091e-07 ++++++++++++++++++++++to 1.101e-07
Heightened Def Con from 1.101e-07 ++++++++++++++++++++++to 1.111e-07
Heightened Def Con from 1.111e-07 ++++++++++++++++++++++to 1.121e-07
Heightened Def Con from 1.121e-07 ++++++++++++++++++++++to 1.131e-07
Heightened Def Con from 1.131e-07 ++++++++++++++++++++++to 1.141e-07
Heightened Def Con from 1.141e-07 ++++++++++++++++++++++to 1.151e-07
Heightened Def Con from 1.151e-07 ++++++++++++++++++++++to 1.161e-07
Heightened Def Con from 1.161e-07 ++++++++++++++++++++++to 1.171e-07
Heightened Def Con from 1.171e-07 ++++++++++++++++++++++to 1.181e-07
Heightened Def Con from 1.181e-07 ++++++++++++++++++++++to 1.191e-07
Heightened Def Con from 1.191e-07 ++++++++++++++++++++++to 1.201e-07
Heightened Def Con from 1.201e-07 ++++++++++++++++++++++to 1.211e-07
Heightened Def Con from 1.211e-07 ++++++++++++++++++++++to 1.221e-07
Heightened Def Con from 1.221e-07 ++++++++++++++++++++++to 1.231e-07
Heightened Def Con from 1.231e-07 ++++++++++++++++++++++to 1.241e-07
Heightened Def Con from 1.241e-07 ++++++++++++++++++++++to 1.251e-07
Heightened Def Con from 1.251e-07 ++++++++++++++++++++++to 1.261e-07
Heightened Def Con from 1.261e-07 ++++++++++++++++++++++to 1.271e-07
Heightened Def Con from 1.271e-07 ++++++++++++++++++++++to 1.281e-07
Heightened Def Con from 1.281e-07 ++++++++++++++++++++++to 1.291e-07
Heightened Def Con from 1.291e-07 ++++++++++++++++++++++to 1.301e-07
Heightened Def Con from 1.301e-07 ++++++++++++++++++++++to 1.311e-07
Heightened Def Con from 1.311e-07 ++++++++++++++++++++++to 1.321e-07
Heightened Def Con from 1.321e-07 ++++++++++++++++++++++to 1.331e-07
Heightened Def Con from 1.331e-07 ++++++++++++++++++++++to 1.341e-07
Heightened Def Con from 1.341e-07 ++++++++++++++++++++++to 1.351e-07
Heightened Def Con from 1.351e-07 ++++++++++++++++++++++to 1.361e-07
Heightened Def Con from 1.361e-07 ++++++++++++++++++++++to 1.371e-07
Heightened Def Con from 1.371e-07 ++++++++++++++++++++++to 1.381e-07
Heightened Def Con from 1.381e-07 ++++++++++++++++++++++to 1.391e-07
Heightened Def Con from 1.391e-07 ++++++++++++++++++++++to 1.401e-07
Heightened Def Con from 1.401e-07 ++++++++++++++++++++++to 1.411e-07
Heightened Def Con from 1.411e-07 ++++++++++++++++++++++to 1.421e-07
Heightened Def Con from 1.421e-07 ++++++++++++++++++++++to 1.431e-07
Heightened Def Con from 1.431e-07 ++++++++++++++++++++++to 1.441e-07
Heightened Def Con from 1.441e-07 ++++++++++++++++++++++to 1.451e-07
Heightened Def Con from 1.451e-07 ++++++++++++++++++++++to 1.461e-07
Heightened Def Con from 1.461e-07 ++++++++++++++++++++++to 1.471e-07
Heightened Def Con from 1.471e-07 ++++++++++++++++++++++to 1.481e-07
Heightened Def Con from 1.481e-07 ++++++++++++++++++++++to 1.491e-07
Heightened Def Con from 1.491e-07 ++++++++++++++++++++++to 1.501e-07
Heightened Def Con from 1.501e-07 ++++++++++++++++++++++to 1.511e-07
Heightened Def Con from 1.511e-07 ++++++++++++++++++++++to 1.521e-07
Heightened Def Con from 1.521e-07 ++++++++++++++++++++++to 1.531e-07
Heightened Def Con from 1.531e-07 ++++++++++++++++++++++to 1.541e-07
Heightened Def Con from 1.541e-07 ++++++++++++++++++++++to 1.551e-07
Heightened Def Con from 1.551e-07 ++++++++++++++++++++++to 1.561e-07
Heightened Def Con from 1.561e-07 ++++++++++++++++++++++to 1.571e-07
Heightened Def Con from 1.571e-07 ++++++++++++++++++++++to 1.581e-07
Heightened Def Con from 1.581e-07 ++++++++++++++++++++++to 1.591e-07
Heightened Def Con from 1.591e-07 ++++++++++++++++++++++to 1.601e-07
Heightened Def Con from 1.601e-07 ++++++++++++++++++++++to 1.611e-07
Heightened Def Con from 1.611e-07 ++++++++++++++++++++++to 1.621e-07
Heightened Def Con from 1.621e-07 ++++++++++++++++++++++to 1.631e-07
Heightened Def Con from 1.631e-07 ++++++++++++++++++++++to 1.641e-07
Heightened Def Con from 1.641e-07 ++++++++++++++++++++++to 1.651e-07
Heightened Def Con from 1.651e-07 ++++++++++++++++++++++to 1.661e-07
Heightened Def Con from 1.661e-07 ++++++++++++++++++++++to 1.671e-07
Heightened Def Con from 1.671e-07 ++++++++++++++++++++++to 1.681e-07
Heightened Def Con from 1.681e-07 ++++++++++++++++++++++to 1.691e-07
Heightened Def Con from 1.691e-07 ++++++++++++++++++++++to 1.701e-07
Heightened Def Con from 1.701e-07 ++++++++++++++++++++++to 1.711e-07
Heightened Def Con from 1.711e-07 ++++++++++++++++++++++to 1.721e-07
Heightened Def Con from 1.721e-07 ++++++++++++++++++++++to 1.731e-07
Heightened Def Con from 1.731e-07 ++++++++++++++++++++++to 1.741e-07
Heightened Def Con from 1.741e-07 ++++++++++++++++++++++to 1.751e-07
Heightened Def Con from 1.751e-07 ++++++++++++++++++++++to 1.761e-07
Heightened Def Con from 1.761e-07 ++++++++++++++++++++++to 1.771e-07
Heightened Def Con from 1.771e-07 ++++++++++++++++++++++to 1.781e-07
Heightened Def Con from 1.781e-07 ++++++++++++++++++++++to 1.791e-07
Heightened Def Con from 1.791e-07 ++++++++++++++++++++++to 1.801e-07
Heightened Def Con from 1.801e-07 ++++++++++++++++++++++to 1.811e-07
Heightened Def Con from 1.811e-07 ++++++++++++++++++++++to 1.821e-07
Heightened Def Con from 1.821e-07 ++++++++++++++++++++++to 1.831e-07
Heightened Def Con from 1.831e-07 ++++++++++++++++++++++to 1.841e-07
Heightened Def Con from 1.841e-07 ++++++++++++++++++++++to 1.851e-07
Heightened Def Con from 1.851e-07 ++++++++++++++++++++++to 1.861e-07
Heightened Def Con from 1.861e-07 ++++++++++++++++++++++to 1.871e-07
Heightened Def Con from 1.871e-07 ++++++++++++++++++++++to 1.881e-07
Heightened Def Con from 1.881e-07 ++++++++++++++++++++++to 1.891e-07
Heightened Def Con from 1.891e-07 ++++++++++++++++++++++to 1.901e-07
Heightened Def Con from 1.901e-07 ++++++++++++++++++++++to 1.911e-07
Heightened Def Con from 1.911e-07 ++++++++++++++++++++++to 1.921e-07
Heightened Def Con from 1.921e-07 ++++++++++++++++++++++to 1.931e-07
Heightened Def Con from 1.931e-07 ++++++++++++++++++++++to 1.941e-07
Heightened Def Con from 1.941e-07 ++++++++++++++++++++++to 1.951e-07
Heightened Def Con from 1.951e-07 ++++++++++++++++++++++to 1.961e-07
Heightened Def Con from 1.961e-07 ++++++++++++++++++++++to 1.971e-07
Heightened Def Con from 1.971e-07 ++++++++++++++++++++++to 1.981e-07
Heightened Def Con from 1.981e-07 ++++++++++++++++++++++to 1.991e-07
Heightened Def Con from 1.991e-07 ++++++++++++++++++++++to 2.001e-07
Heightened Def Con from 2.001e-07 ++++++++++++++++++++++to 2.011e-07
Heightened Def Con from 2.011e-07 ++++++++++++++++++++++to 2.021e-07
Heightened Def Con from 2.021e-07 ++++++++++++++++++++++to 2.031e-07
Heightened Def Con from 2.031e-07 ++++++++++++++++++++++to 2.041e-07
Heightened Def Con from 2.041e-07 ++++++++++++++++++++++to 2.051e-07
Heightened Def Con from 2.051e-07 ++++++++++++++++++++++to 2.061e-07
Heightened Def Con from 2.061e-07 ++++++++++++++++++++++to 2.071e-07
Heightened Def Con from 2.071e-07 ++++++++++++++++++++++to 2.081e-07
Heightened Def Con from 2.081e-07 ++++++++++++++++++++++to 2.091e-07
Heightened Def Con from 2.091e-07 ++++++++++++++++++++++to 2.101e-07
Heightened Def Con from 2.101e-07 ++++++++++++++++++++++to 2.111e-07
Heightened Def Con from 2.111e-07 ++++++++++++++++++++++to 2.121e-07
Heightened Def Con from 2.121e-07 ++++++++++++++++++++++to 2.131e-07
Heightened Def Con from 2.131e-07 ++++++++++++++++++++++to 2.141e-07
Heightened Def Con from 2.141e-07 ++++++++++++++++++++++to 2.151e-07
Heightened Def Con from 2.151e-07 ++++++++++++++++++++++to 2.161e-07
Heightened Def Con from 2.161e-07 ++++++++++++++++++++++to 2.171e-07
Heightened Def Con from 2.171e-07 ++++++++++++++++++++++to 2.181e-07
Heightened Def Con from 2.181e-07 ++++++++++++++++++++++to 2.191e-07
Heightened Def Con from 2.191e-07 ++++++++++++++++++++++to 2.201e-07
Heightened Def Con from 2.201e-07 ++++++++++++++++++++++to 2.211e-07
Heightened Def Con from 2.211e-07 ++++++++++++++++++++++to 2.221e-07
Heightened Def Con from 2.221e-07 ++++++++++++++++++++++to 2.231e-07
Heightened Def Con from 2.231e-07 ++++++++++++++++++++++to 2.241e-07
Heightened Def Con from 2.241e-07 ++++++++++++++++++++++to 2.251e-07
Heightened Def Con from 2.251e-07 ++++++++++++++++++++++to 2.261e-07
Heightened Def Con from 2.261e-07 ++++++++++++++++++++++to 2.271e-07
Heightened Def Con from 2.271e-07 ++++++++++++++++++++++to 2.281e-07
Heightened Def Con from 2.281e-07 ++++++++++++++++++++++to 2.291e-07
Heightened Def Con from 2.291e-07 ++++++++++++++++++++++to 2.301e-07
Heightened Def Con from 2.301e-07 ++++++++++++++++++++++to 2.311e-07
Heightened Def Con from 2.311e-07 ++++++++++++++++++++++to 2.321e-07
Heightened Def Con from 2.321e-07 ++++++++++++++++++++++to 2.331e-07
Heightened Def Con from 2.331e-07 ++++++++++++++++++++++to 2.341e-07
Heightened Def Con from 2.341e-07 ++++++++++++++++++++++to 2.351e-07
Heightened Def Con from 2.351e-07 ++++++++++++++++++++++to 2.361e-07
Heightened Def Con from 2.361e-07 ++++++++++++++++++++++to 2.371e-07
Heightened Def Con from 2.371e-07 ++++++++++++++++++++++to 2.381e-07
Heightened Def Con from 2.381e-07 ++++++++++++++++++++++to 2.391e-07
Heightened Def Con from 2.391e-07 ++++++++++++++++++++++to 2.401e-07
Heightened Def Con from 2.401e-07 ++++++++++++++++++++++to 2.411e-07
Heightened Def Con from 2.411e-07 ++++++++++++++++++++++to 2.421e-07
Heightened Def Con from 2.421e-07 ++++++++++++++++++++++to 2.431e-07
Heightened Def Con from 2.431e-07 ++++++++++++++++++++++to 2.441e-07
Heightened Def Con from 2.441e-07 ++++++++++++++++++++++to 2.451e-07
Heightened Def Con from 2.451e-07 ++++++++++++++++++++++to 2.461e-07
Heightened Def Con from 2.461e-07 ++++++++++++++++++++++to 2.471e-07
Heightened Def Con from 2.471e-07 ++++++++++++++++++++++to 2.481e-07
Heightened Def Con from 2.481e-07 ++++++++++++++++++++++to 2.491e-07
Heightened Def Con from 2.491e-07 ++++++++++++++++++++++to 2.501e-07
Heightened Def Con from 2.501e-07 ++++++++++++++++++++++to 2.511e-07
Heightened Def Con from 2.511e-07 ++++++++++++++++++++++to 2.521e-07
Heightened Def Con from 2.521e-07 ++++++++++++++++++++++to 2.531e-07
Heightened Def Con from 2.531e-07 ++++++++++++++++++++++to 2.541e-07
Heightened Def Con from 2.541e-07 ++++++++++++++++++++++to 2.551e-07
Heightened Def Con from 2.551e-07 ++++++++++++++++++++++to 2.561e-07
Heightened Def Con from 2.561e-07 ++++++++++++++++++++++to 2.571e-07
Heightened Def Con from 2.571e-07 ++++++++++++++++++++++to 2.581e-07
Heightened Def Con from 2.581e-07 ++++++++++++++++++++++to 2.591e-07
Heightened Def Con from 2.591e-07 ++++++++++++++++++++++to 2.601e-07
Heightened Def Con from 2.601e-07 ++++++++++++++++++++++to 2.611e-07
Heightened Def Con from 2.611e-07 ++++++++++++++++++++++to 2.621e-07
Heightened Def Con from 2.621e-07 ++++++++++++++++++++++to 2.631e-07
Heightened Def Con from 2.631e-07 ++++++++++++++++++++++to 2.641e-07
Heightened Def Con from 2.641e-07 ++++++++++++++++++++++to 2.651e-07
Heightened Def Con from 2.651e-07 ++++++++++++++++++++++to 2.661e-07
Heightened Def Con from 2.661e-07 ++++++++++++++++++++++to 2.671e-07
Heightened Def Con from 2.671e-07 ++++++++++++++++++++++to 2.681e-07
Heightened Def Con from 2.681e-07 ++++++++++++++++++++++to 2.691e-07
Heightened Def Con from 2.691e-07 ++++++++++++++++++++++to 2.701e-07
Heightened Def Con from 2.701e-07 ++++++++++++++++++++++to 2.711e-07
Heightened Def Con from 2.711e-07 ++++++++++++++++++++++to 2.721e-07
Heightened Def Con from 2.721e-07 ++++++++++++++++++++++to 2.731e-07
Heightened Def Con from 2.731e-07 ++++++++++++++++++++++to 2.741e-07
Heightened Def Con from 2.741e-07 ++++++++++++++++++++++to 2.751e-07
Heightened Def Con from 2.751e-07 ++++++++++++++++++++++to 2.761e-07
Heightened Def Con from 2.761e-07 ++++++++++++++++++++++to 2.771e-07
Heightened Def Con from 2.771e-07 ++++++++++++++++++++++to 2.781e-07
Heightened Def Con from 2.781e-07 ++++++++++++++++++++++to 2.791e-07
Heightened Def Con from 2.791e-07 ++++++++++++++++++++++to 2.801e-07
Heightened Def Con from 2.801e-07 ++++++++++++++++++++++to 2.811e-07
Heightened Def Con from 2.811e-07 ++++++++++++++++++++++to 2.821e-07
Heightened Def Con from 2.821e-07 ++++++++++++++++++++++to 2.831e-07
Heightened Def Con from 2.831e-07 ++++++++++++++++++++++to 2.841e-07
Heightened Def Con from 2.841e-07 ++++++++++++++++++++++to 2.851e-07
Heightened Def Con from 2.851e-07 ++++++++++++++++++++++to 2.861e-07
Heightened Def Con from 2.861e-07 ++++++++++++++++++++++to 2.871e-07
Heightened Def Con from 2.871e-07 ++++++++++++++++++++++to 2.881e-07
Heightened Def Con from 2.881e-07 ++++++++++++++++++++++to 2.891e-07
Heightened Def Con from 2.891e-07 ++++++++++++++++++++++to 2.901e-07
Heightened Def Con from 2.901e-07 ++++++++++++++++++++++to 2.911e-07
Heightened Def Con from 2.911e-07 ++++++++++++++++++++++to 2.921e-07
Heightened Def Con from 2.921e-07 ++++++++++++++++++++++to 2.931e-07
Heightened Def Con from 2.931e-07 ++++++++++++++++++++++to 2.941e-07
Heightened Def Con from 2.941e-07 ++++++++++++++++++++++to 2.951e-07
Heightened Def Con from 2.951e-07 ++++++++++++++++++++++to 2.961e-07
Heightened Def Con from 2.961e-07 ++++++++++++++++++++++to 2.971e-07
Heightened Def Con from 2.971e-07 ++++++++++++++++++++++to 2.981e-07
Heightened Def Con from 2.981e-07 ++++++++++++++++++++++to 2.991e-07
Heightened Def Con from 2.991e-07 ++++++++++++++++++++++to 3.001e-07
Heightened Def Con from 3.001e-07 ++++++++++++++++++++++to 3.011e-07
Heightened Def Con from 3.011e-07 ++++++++++++++++++++++to 3.021e-07
Heightened Def Con from 3.021e-07 ++++++++++++++++++++++to 3.031e-07
Heightened Def Con from 3.031e-07 ++++++++++++++++++++++to 3.041e-07
Heightened Def Con from 3.041e-07 ++++++++++++++++++++++to 3.051e-07
Heightened Def Con from 3.051e-07 ++++++++++++++++++++++to 3.061e-07
Heightened Def Con from 3.061e-07 ++++++++++++++++++++++to 3.071e-07
Heightened Def Con from 3.071e-07 ++++++++++++++++++++++to 3.081e-07
Heightened Def Con from 3.081e-07 ++++++++++++++++++++++to 3.091e-07
Heightened Def Con from 3.091e-07 ++++++++++++++++++++++to 3.101e-07
Heightened Def Con from 3.101e-07 ++++++++++++++++++++++to 3.111e-07
Heightened Def Con from 3.111e-07 ++++++++++++++++++++++to 3.121e-07
Heightened Def Con from 3.121e-07 ++++++++++++++++++++++to 3.131e-07
Heightened Def Con from 3.131e-07 ++++++++++++++++++++++to 3.141e-07
Heightened Def Con from 3.141e-07 ++++++++++++++++++++++to 3.151e-07
Heightened Def Con from 3.151e-07 ++++++++++++++++++++++to 3.161e-07
Heightened Def Con from 3.161e-07 ++++++++++++++++++++++to 3.171e-07
Heightened Def Con from 3.171e-07 ++++++++++++++++++++++to 3.181e-07
Heightened Def Con from 3.181e-07 ++++++++++++++++++++++to 3.191e-07
Heightened Def Con from 3.191e-07 ++++++++++++++++++++++to 3.201e-07
Heightened Def Con from 3.201e-07 ++++++++++++++++++++++to 3.211e-07
Heightened Def Con from 3.211e-07 ++++++++++++++++++++++to 3.221e-07
Heightened Def Con from 3.221e-07 ++++++++++++++++++++++to 3.231e-07
Heightened Def Con from 3.231e-07 ++++++++++++++++++++++to 3.241e-07
Heightened Def Con from 3.241e-07 ++++++++++++++++++++++to 3.251e-07
Heightened Def Con from 3.251e-07 ++++++++++++++++++++++to 3.261e-07
Heightened Def Con from 3.261e-07 ++++++++++++++++++++++to 3.271e-07
Heightened Def Con from 3.271e-07 ++++++++++++++++++++++to 3.281e-07
Heightened Def Con from 3.281e-07 ++++++++++++++++++++++to 3.291e-07
Heightened Def Con from 3.291e-07 ++++++++++++++++++++++to 3.301e-07
Heightened Def Con from 3.301e-07 ++++++++++++++++++++++to 3.311e-07
Heightened Def Con from 3.311e-07 ++++++++++++++++++++++to 3.321e-07
Heightened Def Con from 3.321e-07 ++++++++++++++++++++++to 3.331e-07
Heightened Def Con from 3.331e-07 ++++++++++++++++++++++to 3.341e-07
Heightened Def Con from 3.341e-07 ++++++++++++++++++++++to 3.351e-07
Heightened Def Con from 3.351e-07 ++++++++++++++++++++++to 3.361e-07
Heightened Def Con from 3.361e-07 ++++++++++++++++++++++to 3.371e-07
Heightened Def Con from 3.371e-07 ++++++++++++++++++++++to 3.381e-07
Heightened Def Con from 3.381e-07 ++++++++++++++++++++++to 3.391e-07
Heightened Def Con from 3.391e-07 ++++++++++++++++++++++to 3.401e-07
Heightened Def Con from 3.401e-07 ++++++++++++++++++++++to 3.411e-07
Heightened Def Con from 3.411e-07 ++++++++++++++++++++++to 3.421e-07
Heightened Def Con from 3.421e-07 ++++++++++++++++++++++to 3.431e-07
Heightened Def Con from 3.431e-07 ++++++++++++++++++++++to 3.441e-07
Heightened Def Con from 3.441e-07 ++++++++++++++++++++++to 3.451e-07
Heightened Def Con from 3.451e-07 ++++++++++++++++++++++to 3.461e-07
Heightened Def Con from 3.461e-07 ++++++++++++++++++++++to 3.471e-07
Heightened Def Con from 3.471e-07 ++++++++++++++++++++++to 3.481e-07
Heightened Def Con from 3.481e-07 ++++++++++++++++++++++to 3.491e-07
Heightened Def Con from 3.491e-07 ++++++++++++++++++++++to 3.501e-07
Heightened Def Con from 3.501e-07 ++++++++++++++++++++++to 3.511e-07
Heightened Def Con from 3.511e-07 ++++++++++++++++++++++to 3.521e-07
Heightened Def Con from 3.521e-07 ++++++++++++++++++++++to 3.531e-07
Heightened Def Con from 3.531e-07 ++++++++++++++++++++++to 3.541e-07
Heightened Def Con from 3.541e-07 ++++++++++++++++++++++to 3.551e-07
Heightened Def Con from 3.551e-07 ++++++++++++++++++++++to 3.561e-07
Heightened Def Con from 3.561e-07 ++++++++++++++++++++++to 3.571e-07
Heightened Def Con from 3.571e-07 ++++++++++++++++++++++to 3.581e-07
Heightened Def Con from 3.581e-07 ++++++++++++++++++++++to 3.591e-07
Heightened Def Con from 3.591e-07 ++++++++++++++++++++++to 3.601e-07
Heightened Def Con from 3.601e-07 ++++++++++++++++++++++to 3.611e-07
Heightened Def Con from 3.611e-07 ++++++++++++++++++++++to 3.621e-07
Heightened Def Con from 3.621e-07 ++++++++++++++++++++++to 3.631e-07
Heightened Def Con from 3.631e-07 ++++++++++++++++++++++to 3.641e-07
Heightened Def Con from 3.641e-07 ++++++++++++++++++++++to 3.651e-07
Heightened Def Con from 3.651e-07 ++++++++++++++++++++++to 3.661e-07
Heightened Def Con from 3.661e-07 ++++++++++++++++++++++to 3.671e-07
Heightened Def Con from 3.671e-07 ++++++++++++++++++++++to 3.681e-07
Heightened Def Con from 3.681e-07 ++++++++++++++++++++++to 3.691e-07
Heightened Def Con from 3.691e-07 ++++++++++++++++++++++to 3.701e-07
Heightened Def Con from 3.701e-07 ++++++++++++++++++++++to 3.711e-07
Heightened Def Con from 3.711e-07 ++++++++++++++++++++++to 3.721e-07
Heightened Def Con from 3.721e-07 ++++++++++++++++++++++to 3.731e-07
Heightened Def Con from 3.731e-07 ++++++++++++++++++++++to 3.741e-07
Heightened Def Con from 3.741e-07 ++++++++++++++++++++++to 3.751e-07
Heightened Def Con from 3.751e-07 ++++++++++++++++++++++to 3.761e-07
Heightened Def Con from 3.761e-07 ++++++++++++++++++++++to 3.771e-07
Heightened Def Con from 3.771e-07 ++++++++++++++++++++++to 3.781e-07
Heightened Def Con from 3.781e-07 ++++++++++++++++++++++to 3.791e-07
Heightened Def Con from 3.791e-07 ++++++++++++++++++++++to 3.801e-07
Heightened Def Con from 3.801e-07 ++++++++++++++++++++++to 3.811e-07
Heightened Def Con from 3.811e-07 ++++++++++++++++++++++to 3.821e-07
Heightened Def Con from 3.821e-07 ++++++++++++++++++++++to 3.831e-07
Heightened Def Con from 3.831e-07 ++++++++++++++++++++++to 3.841e-07
Heightened Def Con from 3.841e-07 ++++++++++++++++++++++to 3.851e-07
Heightened Def Con from 3.851e-07 ++++++++++++++++++++++to 3.861e-07
Heightened Def Con from 3.861e-07 ++++++++++++++++++++++to 3.871e-07
Heightened Def Con from 3.871e-07 ++++++++++++++++++++++to 3.881e-07
Heightened Def Con from 3.881e-07 ++++++++++++++++++++++to 3.891e-07
Heightened Def Con from 3.891e-07 ++++++++++++++++++++++to 3.901e-07
Heightened Def Con from 3.901e-07 ++++++++++++++++++++++to 3.911e-07
Heightened Def Con from 3.911e-07 ++++++++++++++++++++++to 3.921e-07
Heightened Def Con from 3.921e-07 ++++++++++++++++++++++to 3.931e-07
Heightened Def Con from 3.931e-07 ++++++++++++++++++++++to 3.941e-07
Heightened Def Con from 3.941e-07 ++++++++++++++++++++++to 3.951e-07
Heightened Def Con from 3.951e-07 ++++++++++++++++++++++to 3.961e-07
Heightened Def Con from 3.961e-07 ++++++++++++++++++++++to 3.971e-07
Heightened Def Con from 3.971e-07 ++++++++++++++++++++++to 3.981e-07
Heightened Def Con from 3.981e-07 ++++++++++++++++++++++to 3.991e-07
Heightened Def Con from 3.991e-07 ++++++++++++++++++++++to 4.001e-07
Heightened Def Con from 4.001e-07 ++++++++++++++++++++++to 4.011e-07
Heightened Def Con from 4.011e-07 ++++++++++++++++++++++to 4.021e-07
Heightened Def Con from 4.021e-07 ++++++++++++++++++++++to 4.031e-07
Heightened Def Con from 4.031e-07 ++++++++++++++++++++++to 4.041e-07
Heightened Def Con from 4.041e-07 ++++++++++++++++++++++to 4.051e-07
Heightened Def Con from 4.051e-07 ++++++++++++++++++++++to 4.061e-07
Heightened Def Con from 4.061e-07 ++++++++++++++++++++++to 4.071e-07
Heightened Def Con from 4.071e-07 ++++++++++++++++++++++to 4.081e-07
Heightened Def Con from 4.081e-07 ++++++++++++++++++++++to 4.091e-07
Heightened Def Con from 4.091e-07 ++++++++++++++++++++++to 4.101e-07
Heightened Def Con from 4.101e-07 ++++++++++++++++++++++to 4.111e-07
Heightened Def Con from 4.111e-07 ++++++++++++++++++++++to 4.121e-07
Heightened Def Con from 4.121e-07 ++++++++++++++++++++++to 4.131e-07
Heightened Def Con from 4.131e-07 ++++++++++++++++++++++to 4.141e-07
Heightened Def Con from 4.141e-07 ++++++++++++++++++++++to 4.151e-07
Heightened Def Con from 4.151e-07 ++++++++++++++++++++++to 4.161e-07
Heightened Def Con from 4.161e-07 ++++++++++++++++++++++to 4.171e-07
Heightened Def Con from 4.171e-07 ++++++++++++++++++++++to 4.181e-07
Heightened Def Con from 4.181e-07 ++++++++++++++++++++++to 4.191e-07
Heightened Def Con from 4.191e-07 ++++++++++++++++++++++to 4.201e-07
Heightened Def Con from 4.201e-07 ++++++++++++++++++++++to 4.211e-07
Heightened Def Con from 4.211e-07 ++++++++++++++++++++++to 4.221e-07
Heightened Def Con from 4.221e-07 ++++++++++++++++++++++to 4.231e-07
Heightened Def Con from 4.231e-07 ++++++++++++++++++++++to 4.241e-07
Heightened Def Con from 4.241e-07 ++++++++++++++++++++++to 4.251e-07
Heightened Def Con from 4.251e-07 ++++++++++++++++++++++to 4.261e-07
Heightened Def Con from 4.261e-07 ++++++++++++++++++++++to 4.271e-07
Heightened Def Con from 4.271e-07 ++++++++++++++++++++++to 4.281e-07
Heightened Def Con from 4.281e-07 ++++++++++++++++++++++to 4.291e-07
Heightened Def Con from 4.291e-07 ++++++++++++++++++++++to 4.301e-07
Heightened Def Con from 4.301e-07 ++++++++++++++++++++++to 4.311e-07
Heightened Def Con from 4.311e-07 ++++++++++++++++++++++to 4.321e-07
Heightened Def Con from 4.321e-07 ++++++++++++++++++++++to 4.331e-07
Heightened Def Con from 4.331e-07 ++++++++++++++++++++++to 4.341e-07
Heightened Def Con from 4.341e-07 ++++++++++++++++++++++to 4.351e-07
Heightened Def Con from 4.351e-07 ++++++++++++++++++++++to 4.361e-07
Heightened Def Con from 4.361e-07 ++++++++++++++++++++++to 4.371e-07
Heightened Def Con from 4.371e-07 ++++++++++++++++++++++to 4.381e-07
Heightened Def Con from 4.381e-07 ++++++++++++++++++++++to 4.391e-07
Heightened Def Con from 4.391e-07 ++++++++++++++++++++++to 4.401e-07
Heightened Def Con from 4.401e-07 ++++++++++++++++++++++to 4.411e-07
Heightened Def Con from 4.411e-07 ++++++++++++++++++++++to 4.421e-07
Heightened Def Con from 4.421e-07 ++++++++++++++++++++++to 4.431e-07
Heightened Def Con from 4.431e-07 ++++++++++++++++++++++to 4.441e-07
Heightened Def Con from 4.441e-07 ++++++++++++++++++++++to 4.451e-07
Heightened Def Con from 4.451e-07 ++++++++++++++++++++++to 4.461e-07
Heightened Def Con from 4.461e-07 ++++++++++++++++++++++to 4.471e-07
Heightened Def Con from 4.471e-07 ++++++++++++++++++++++to 4.481e-07
Heightened Def Con from 4.481e-07 ++++++++++++++++++++++to 4.491e-07
Heightened Def Con from 4.491e-07 ++++++++++++++++++++++to 4.501e-07
Heightened Def Con from 4.501e-07 ++++++++++++++++++++++to 4.511e-07
Heightened Def Con from 4.511e-07 ++++++++++++++++++++++to 4.521e-07
Heightened Def Con from 4.521e-07 ++++++++++++++++++++++to 4.531e-07
Heightened Def Con from 4.531e-07 ++++++++++++++++++++++to 4.541e-07
Heightened Def Con from 4.541e-07 ++++++++++++++++++++++to 4.551e-07
Heightened Def Con from 4.551e-07 ++++++++++++++++++++++to 4.561e-07
Heightened Def Con from 4.561e-07 ++++++++++++++++++++++to 4.571e-07
Heightened Def Con from 4.571e-07 ++++++++++++++++++++++to 4.581e-07
Heightened Def Con from 4.581e-07 ++++++++++++++++++++++to 4.591e-07
Heightened Def Con from 4.591e-07 ++++++++++++++++++++++to 4.601e-07
Heightened Def Con from 4.601e-07 ++++++++++++++++++++++to 4.611e-07
Heightened Def Con from 4.611e-07 ++++++++++++++++++++++to 4.621e-07
Heightened Def Con from 4.621e-07 ++++++++++++++++++++++to 4.631e-07
Heightened Def Con from 4.631e-07 ++++++++++++++++++++++to 4.641e-07
Heightened Def Con from 4.641e-07 ++++++++++++++++++++++to 4.651e-07
Heightened Def Con from 4.651e-07 ++++++++++++++++++++++to 4.661e-07
Heightened Def Con from 4.661e-07 ++++++++++++++++++++++to 4.671e-07
Heightened Def Con from 4.671e-07 ++++++++++++++++++++++to 4.681e-07
Heightened Def Con from 4.681e-07 ++++++++++++++++++++++to 4.691e-07
Heightened Def Con from 4.691e-07 ++++++++++++++++++++++to 4.701e-07
Heightened Def Con from 4.701e-07 ++++++++++++++++++++++to 4.711e-07
Heightened Def Con from 4.711e-07 ++++++++++++++++++++++to 4.721e-07
Heightened Def Con from 4.721e-07 ++++++++++++++++++++++to 4.731e-07
Heightened Def Con from 4.731e-07 ++++++++++++++++++++++to 4.741e-07
Heightened Def Con from 4.741e-07 ++++++++++++++++++++++to 4.751e-07
Heightened Def Con from 4.751e-07 ++++++++++++++++++++++to 4.761e-07
Heightened Def Con from 4.761e-07 ++++++++++++++++++++++to 4.771e-07
Heightened Def Con from 4.771e-07 ++++++++++++++++++++++to 4.781e-07
Heightened Def Con from 4.781e-07 ++++++++++++++++++++++to 4.791e-07
Heightened Def Con from 4.791e-07 ++++++++++++++++++++++to 4.801e-07
Heightened Def Con from 4.801e-07 ++++++++++++++++++++++to 4.811e-07
Heightened Def Con from 4.811e-07 ++++++++++++++++++++++to 4.821e-07
Heightened Def Con from 4.821e-07 ++++++++++++++++++++++to 4.831e-07
Heightened Def Con from 4.831e-07 ++++++++++++++++++++++to 4.841e-07
Heightened Def Con from 4.841e-07 ++++++++++++++++++++++to 4.851e-07
Heightened Def Con from 4.851e-07 ++++++++++++++++++++++to 4.861e-07
Heightened Def Con from 4.861e-07 ++++++++++++++++++++++to 4.871e-07
Heightened Def Con from 4.871e-07 ++++++++++++++++++++++to 4.881e-07
Heightened Def Con from 4.881e-07 ++++++++++++++++++++++to 4.891e-07
Heightened Def Con from 4.891e-07 ++++++++++++++++++++++to 4.901e-07
Heightened Def Con from 4.901e-07 ++++++++++++++++++++++to 4.911e-07
Heightened Def Con from 4.911e-07 ++++++++++++++++++++++to 4.921e-07
Heightened Def Con from 4.921e-07 ++++++++++++++++++++++to 4.931e-07
Heightened Def Con from 4.931e-07 ++++++++++++++++++++++to 4.941e-07
Heightened Def Con from 4.941e-07 ++++++++++++++++++++++to 4.951e-07
Heightened Def Con from 4.951e-07 ++++++++++++++++++++++to 4.961e-07
Heightened Def Con from 4.961e-07 ++++++++++++++++++++++to 4.971e-07
Heightened Def Con from 4.971e-07 ++++++++++++++++++++++to 4.981e-07
Heightened Def Con from 4.981e-07 ++++++++++++++++++++++to 4.991e-07
Heightened Def Con from 4.991e-07 ++++++++++++++++++++++to 5.001e-07
Heightened Def Con from 5.001e-07 ++++++++++++++++++++++to 5.011e-07
Heightened Def Con from 5.011e-07 ++++++++++++++++++++++to 5.021e-07
Heightened Def Con from 5.021e-07 ++++++++++++++++++++++to 5.031e-07
Heightened Def Con from 5.031e-07 ++++++++++++++++++++++to 5.041e-07
Heightened Def Con from 5.041e-07 ++++++++++++++++++++++to 5.051e-07
Heightened Def Con from 5.051e-07 ++++++++++++++++++++++to 5.061e-07
Heightened Def Con from 5.061e-07 ++++++++++++++++++++++to 5.071e-07
Heightened Def Con from 5.071e-07 ++++++++++++++++++++++to 5.081e-07
Heightened Def Con from 5.081e-07 ++++++++++++++++++++++to 5.091e-07
Heightened Def Con from 5.091e-07 ++++++++++++++++++++++to 5.101e-07
Heightened Def Con from 5.101e-07 ++++++++++++++++++++++to 5.111e-07
Heightened Def Con from 5.111e-07 ++++++++++++++++++++++to 5.121e-07
Heightened Def Con from 5.121e-07 ++++++++++++++++++++++to 5.131e-07
Heightened Def Con from 5.131e-07 ++++++++++++++++++++++to 5.141e-07
Heightened Def Con from 5.141e-07 ++++++++++++++++++++++to 5.151e-07
Heightened Def Con from 5.151e-07 ++++++++++++++++++++++to 5.161e-07
Heightened Def Con from 5.161e-07 ++++++++++++++++++++++to 5.171e-07
Heightened Def Con from 5.171e-07 ++++++++++++++++++++++to 5.181e-07
Heightened Def Con from 5.181e-07 ++++++++++++++++++++++to 5.191e-07
Heightened Def Con from 5.191e-07 ++++++++++++++++++++++to 5.201e-07
Heightened Def Con from 5.201e-07 ++++++++++++++++++++++to 5.211e-07
Heightened Def Con from 5.211e-07 ++++++++++++++++++++++to 5.221e-07
Heightened Def Con from 5.221e-07 ++++++++++++++++++++++to 5.231e-07
Heightened Def Con from 5.231e-07 ++++++++++++++++++++++to 5.241e-07
Heightened Def Con from 5.241e-07 ++++++++++++++++++++++to 5.251e-07
Heightened Def Con from 5.251e-07 ++++++++++++++++++++++to 5.261e-07
Heightened Def Con from 5.261e-07 ++++++++++++++++++++++to 5.271e-07
Heightened Def Con from 5.271e-07 ++++++++++++++++++++++to 5.281e-07
Heightened Def Con from 5.281e-07 ++++++++++++++++++++++to 5.291e-07
Heightened Def Con from 5.291e-07 ++++++++++++++++++++++to 5.301e-07
Heightened Def Con from 5.301e-07 ++++++++++++++++++++++to 5.311e-07
Heightened Def Con from 5.311e-07 ++++++++++++++++++++++to 5.321e-07
Heightened Def Con from 5.321e-07 ++++++++++++++++++++++to 5.331e-07
Heightened Def Con from 5.331e-07 ++++++++++++++++++++++to 5.341e-07
Heightened Def Con from 5.341e-07 ++++++++++++++++++++++to 5.351e-07
Heightened Def Con from 5.351e-07 ++++++++++++++++++++++to 5.361e-07
Heightened Def Con from 5.361e-07 ++++++++++++++++++++++to 5.371e-07
Heightened Def Con from 5.371e-07 ++++++++++++++++++++++to 5.381e-07
Heightened Def Con from 5.381e-07 ++++++++++++++++++++++to 5.391e-07
Heightened Def Con from 5.391e-07 ++++++++++++++++++++++to 5.401e-07
Heightened Def Con from 5.401e-07 ++++++++++++++++++++++to 5.411e-07
Heightened Def Con from 5.411e-07 ++++++++++++++++++++++to 5.421e-07
Heightened Def Con from 5.421e-07 ++++++++++++++++++++++to 5.431e-07
Heightened Def Con from 5.431e-07 ++++++++++++++++++++++to 5.441e-07
Heightened Def Con from 5.441e-07 ++++++++++++++++++++++to 5.451e-07
Heightened Def Con from 5.451e-07 ++++++++++++++++++++++to 5.461e-07
Heightened Def Con from 5.461e-07 ++++++++++++++++++++++to 5.471e-07
Heightened Def Con from 5.471e-07 ++++++++++++++++++++++to 5.481e-07
Heightened Def Con from 5.481e-07 ++++++++++++++++++++++to 5.491e-07
Heightened Def Con from 5.491e-07 ++++++++++++++++++++++to 5.501e-07
Heightened Def Con from 5.501e-07 ++++++++++++++++++++++to 5.511e-07
Heightened Def Con from 5.511e-07 ++++++++++++++++++++++to 5.521e-07
Heightened Def Con from 5.521e-07 ++++++++++++++++++++++to 5.531e-07
Heightened Def Con from 5.531e-07 ++++++++++++++++++++++to 5.541e-07
Heightened Def Con from 5.541e-07 ++++++++++++++++++++++to 5.551e-07
Heightened Def Con from 5.551e-07 ++++++++++++++++++++++to 5.561e-07
Heightened Def Con from 5.561e-07 ++++++++++++++++++++++to 5.571e-07
Heightened Def Con from 5.571e-07 ++++++++++++++++++++++to 5.581e-07
Heightened Def Con from 5.581e-07 ++++++++++++++++++++++to 5.591e-07
Heightened Def Con from 5.591e-07 ++++++++++++++++++++++to 5.601e-07
Heightened Def Con from 5.601e-07 ++++++++++++++++++++++to 5.611e-07
Heightened Def Con from 5.611e-07 ++++++++++++++++++++++to 5.621e-07
Heightened Def Con from 5.621e-07 ++++++++++++++++++++++to 5.631e-07
Heightened Def Con from 5.631e-07 ++++++++++++++++++++++to 5.641e-07
Heightened Def Con from 5.641e-07 ++++++++++++++++++++++to 5.651e-07
Heightened Def Con from 5.651e-07 ++++++++++++++++++++++to 5.661e-07
Heightened Def Con from 5.661e-07 ++++++++++++++++++++++to 5.671e-07
Heightened Def Con from 5.671e-07 ++++++++++++++++++++++to 5.681e-07
Heightened Def Con from 5.681e-07 ++++++++++++++++++++++to 5.691e-07
Heightened Def Con from 5.691e-07 ++++++++++++++++++++++to 5.701e-07
Heightened Def Con from 5.701e-07 ++++++++++++++++++++++to 5.711e-07
Heightened Def Con from 5.711e-07 ++++++++++++++++++++++to 5.721e-07
Heightened Def Con from 5.721e-07 ++++++++++++++++++++++to 5.731e-07
Heightened Def Con from 5.731e-07 ++++++++++++++++++++++to 5.741e-07
Heightened Def Con from 5.741e-07 ++++++++++++++++++++++to 5.751e-07
Heightened Def Con from 5.751e-07 ++++++++++++++++++++++to 5.761e-07
Heightened Def Con from 5.761e-07 ++++++++++++++++++++++to 5.771e-07
Heightened Def Con from 5.771e-07 ++++++++++++++++++++++to 5.781e-07
Heightened Def Con from 5.781e-07 ++++++++++++++++++++++to 5.791e-07
Heightened Def Con from 5.791e-07 ++++++++++++++++++++++to 5.801e-07
Heightened Def Con from 5.801e-07 ++++++++++++++++++++++to 5.811e-07
Heightened Def Con from 5.811e-07 ++++++++++++++++++++++to 5.821e-07
Heightened Def Con from 5.821e-07 ++++++++++++++++++++++to 5.831e-07
Heightened Def Con from 5.831e-07 ++++++++++++++++++++++to 5.841e-07
Heightened Def Con from 5.841e-07 ++++++++++++++++++++++to 5.851e-07
Heightened Def Con from 5.851e-07 ++++++++++++++++++++++to 5.861e-07
Heightened Def Con from 5.861e-07 ++++++++++++++++++++++to 5.871e-07
Heightened Def Con from 5.871e-07 ++++++++++++++++++++++to 5.881e-07
Heightened Def Con from 5.881e-07 ++++++++++++++++++++++to 5.891e-07
Heightened Def Con from 5.891e-07 ++++++++++++++++++++++to 5.901e-07
Heightened Def Con from 5.901e-07 ++++++++++++++++++++++to 5.911e-07
Heightened Def Con from 5.911e-07 ++++++++++++++++++++++to 5.921e-07
Heightened Def Con from 5.921e-07 ++++++++++++++++++++++to 5.931e-07
Heightened Def Con from 5.931e-07 ++++++++++++++++++++++to 5.941e-07
Heightened Def Con from 5.941e-07 ++++++++++++++++++++++to 5.951e-07
Heightened Def Con from 5.951e-07 ++++++++++++++++++++++to 5.961e-07
Heightened Def Con from 5.961e-07 ++++++++++++++++++++++to 5.971e-07
Heightened Def Con from 5.971e-07 ++++++++++++++++++++++to 5.981e-07
Heightened Def Con from 5.981e-07 ++++++++++++++++++++++to 5.991e-07
Heightened Def Con from 5.991e-07 ++++++++++++++++++++++to 6.001e-07
Heightened Def Con from 6.001e-07 ++++++++++++++++++++++to 6.011e-07
Heightened Def Con from 6.011e-07 ++++++++++++++++++++++to 6.021e-07
Heightened Def Con from 6.021e-07 ++++++++++++++++++++++to 6.031e-07
Heightened Def Con from 6.031e-07 ++++++++++++++++++++++to 6.041e-07
Heightened Def Con from 6.041e-07 ++++++++++++++++++++++to 6.051e-07
Heightened Def Con from 6.051e-07 ++++++++++++++++++++++to 6.061e-07
Heightened Def Con from 6.061e-07 ++++++++++++++++++++++to 6.071e-07
Heightened Def Con from 6.071e-07 ++++++++++++++++++++++to 6.081e-07
Heightened Def Con from 6.081e-07 ++++++++++++++++++++++to 6.091e-07
Heightened Def Con from 6.091e-07 ++++++++++++++++++++++to 6.101e-07
Heightened Def Con from 6.101e-07 ++++++++++++++++++++++to 6.111e-07
Heightened Def Con from 6.111e-07 ++++++++++++++++++++++to 6.121e-07
Heightened Def Con from 6.121e-07 ++++++++++++++++++++++to 6.131e-07
Heightened Def Con from 6.131e-07 ++++++++++++++++++++++to 6.141e-07
Heightened Def Con from 6.141e-07 ++++++++++++++++++++++to 6.151e-07
Heightened Def Con from 6.151e-07 ++++++++++++++++++++++to 6.161e-07
Heightened Def Con from 6.161e-07 ++++++++++++++++++++++to 6.171e-07
Heightened Def Con from 6.171e-07 ++++++++++++++++++++++to 6.181e-07
Heightened Def Con from 6.181e-07 ++++++++++++++++++++++to 6.191e-07
Heightened Def Con from 6.191e-07 ++++++++++++++++++++++to 6.201e-07
Heightened Def Con from 6.201e-07 ++++++++++++++++++++++to 6.211e-07
Heightened Def Con from 6.211e-07 ++++++++++++++++++++++to 6.221e-07
Heightened Def Con from 6.221e-07 ++++++++++++++++++++++to 6.231e-07
Heightened Def Con from 6.231e-07 ++++++++++++++++++++++to 6.241e-07
Heightened Def Con from 6.241e-07 ++++++++++++++++++++++to 6.251e-07
Heightened Def Con from 6.251e-07 ++++++++++++++++++++++to 6.261e-07
Heightened Def Con from 6.261e-07 ++++++++++++++++++++++to 6.271e-07
Heightened Def Con from 6.271e-07 ++++++++++++++++++++++to 6.281e-07
Heightened Def Con from 6.281e-07 ++++++++++++++++++++++to 6.291e-07
Heightened Def Con from 6.291e-07 ++++++++++++++++++++++to 6.301e-07
Heightened Def Con from 6.301e-07 ++++++++++++++++++++++to 6.311e-07
Heightened Def Con from 6.311e-07 ++++++++++++++++++++++to 6.321e-07
Heightened Def Con from 6.321e-07 ++++++++++++++++++++++to 6.331e-07
Heightened Def Con from 6.331e-07 ++++++++++++++++++++++to 6.341e-07
Heightened Def Con from 6.341e-07 ++++++++++++++++++++++to 6.351e-07
Heightened Def Con from 6.351e-07 ++++++++++++++++++++++to 6.361e-07
Heightened Def Con from 6.361e-07 ++++++++++++++++++++++to 6.371e-07
Heightened Def Con from 6.371e-07 ++++++++++++++++++++++to 6.381e-07
Heightened Def Con from 6.381e-07 ++++++++++++++++++++++to 6.391e-07
Heightened Def Con from 6.391e-07 ++++++++++++++++++++++to 6.401e-07
Heightened Def Con from 6.401e-07 ++++++++++++++++++++++to 6.411e-07
Heightened Def Con from 6.411e-07 ++++++++++++++++++++++to 6.421e-07
Heightened Def Con from 6.421e-07 ++++++++++++++++++++++to 6.431e-07
Heightened Def Con from 6.431e-07 ++++++++++++++++++++++to 6.441e-07
Heightened Def Con from 6.441e-07 ++++++++++++++++++++++to 6.451e-07
Heightened Def Con from 6.451e-07 ++++++++++++++++++++++to 6.461e-07
Heightened Def Con from 6.461e-07 ++++++++++++++++++++++to 6.471e-07
Heightened Def Con from 6.471e-07 ++++++++++++++++++++++to 6.481e-07
Heightened Def Con from 6.481e-07 ++++++++++++++++++++++to 6.491e-07
Heightened Def Con from 6.491e-07 ++++++++++++++++++++++to 6.501e-07
Heightened Def Con from 6.501e-07 ++++++++++++++++++++++to 6.511e-07
Heightened Def Con from 6.511e-07 ++++++++++++++++++++++to 6.521e-07
Heightened Def Con from 6.521e-07 ++++++++++++++++++++++to 6.531e-07
Heightened Def Con from 6.531e-07 ++++++++++++++++++++++to 6.541e-07
Heightened Def Con from 6.541e-07 ++++++++++++++++++++++to 6.551e-07
Heightened Def Con from 6.551e-07 ++++++++++++++++++++++to 6.561e-07
Heightened Def Con from 6.561e-07 ++++++++++++++++++++++to 6.571e-07
Heightened Def Con from 6.571e-07 ++++++++++++++++++++++to 6.581e-07
Heightened Def Con from 6.581e-07 ++++++++++++++++++++++to 6.591e-07
Heightened Def Con from 6.591e-07 ++++++++++++++++++++++to 6.601e-07
Heightened Def Con from 6.601e-07 ++++++++++++++++++++++to 6.611e-07
Heightened Def Con from 6.611e-07 ++++++++++++++++++++++to 6.621e-07
Heightened Def Con from 6.621e-07 ++++++++++++++++++++++to 6.631e-07
Heightened Def Con from 6.631e-07 ++++++++++++++++++++++to 6.641e-07
Heightened Def Con from 6.641e-07 ++++++++++++++++++++++to 6.651e-07
Heightened Def Con from 6.651e-07 ++++++++++++++++++++++to 6.661e-07
Heightened Def Con from 6.661e-07 ++++++++++++++++++++++to 6.671e-07
Heightened Def Con from 6.671e-07 ++++++++++++++++++++++to 6.681e-07
Heightened Def Con from 6.681e-07 ++++++++++++++++++++++to 6.691e-07
Heightened Def Con from 6.691e-07 ++++++++++++++++++++++to 6.701e-07
Heightened Def Con from 6.701e-07 ++++++++++++++++++++++to 6.711e-07
Heightened Def Con from 6.711e-07 ++++++++++++++++++++++to 6.721e-07
Heightened Def Con from 6.721e-07 ++++++++++++++++++++++to 6.731e-07
Heightened Def Con from 6.731e-07 ++++++++++++++++++++++to 6.741e-07
Heightened Def Con from 6.741e-07 ++++++++++++++++++++++to 6.751e-07
Heightened Def Con from 6.751e-07 ++++++++++++++++++++++to 6.761e-07
Heightened Def Con from 6.761e-07 ++++++++++++++++++++++to 6.771e-07
Heightened Def Con from 6.771e-07 ++++++++++++++++++++++to 6.781e-07
Heightened Def Con from 6.781e-07 ++++++++++++++++++++++to 6.791e-07
Heightened Def Con from 6.791e-07 ++++++++++++++++++++++to 6.801e-07
Heightened Def Con from 6.801e-07 ++++++++++++++++++++++to 6.811e-07
Heightened Def Con from 6.811e-07 ++++++++++++++++++++++to 6.821e-07
Heightened Def Con from 6.821e-07 ++++++++++++++++++++++to 6.831e-07
Heightened Def Con from 6.831e-07 ++++++++++++++++++++++to 6.841e-07
Heightened Def Con from 6.841e-07 ++++++++++++++++++++++to 6.851e-07
Heightened Def Con from 6.851e-07 ++++++++++++++++++++++to 6.861e-07
Heightened Def Con from 6.861e-07 ++++++++++++++++++++++to 6.871e-07
Heightened Def Con from 6.871e-07 ++++++++++++++++++++++to 6.881e-07
Heightened Def Con from 6.881e-07 ++++++++++++++++++++++to 6.891e-07
Heightened Def Con from 6.891e-07 ++++++++++++++++++++++to 6.901e-07
Heightened Def Con from 6.901e-07 ++++++++++++++++++++++to 6.911e-07
Heightened Def Con from 6.911e-07 ++++++++++++++++++++++to 6.921e-07
Heightened Def Con from 6.921e-07 ++++++++++++++++++++++to 6.931e-07
Heightened Def Con from 6.931e-07 ++++++++++++++++++++++to 6.941e-07
Heightened Def Con from 6.941e-07 ++++++++++++++++++++++to 6.951e-07
Heightened Def Con from 6.951e-07 ++++++++++++++++++++++to 6.961e-07
Heightened Def Con from 6.961e-07 ++++++++++++++++++++++to 6.971e-07
Heightened Def Con from 6.971e-07 ++++++++++++++++++++++to 6.981e-07
Heightened Def Con from 6.981e-07 ++++++++++++++++++++++to 6.991e-07
Heightened Def Con from 6.991e-07 ++++++++++++++++++++++to 7.001e-07
Heightened Def Con from 7.001e-07 ++++++++++++++++++++++to 7.011e-07
Heightened Def Con from 7.011e-07 ++++++++++++++++++++++to 7.021e-07
Heightened Def Con from 7.021e-07 ++++++++++++++++++++++to 7.031e-07
Heightened Def Con from 7.031e-07 ++++++++++++++++++++++to 7.041e-07
Heightened Def Con from 7.041e-07 ++++++++++++++++++++++to 7.051e-07
Heightened Def Con from 7.051e-07 ++++++++++++++++++++++to 7.061e-07
Heightened Def Con from 7.061e-07 ++++++++++++++++++++++to 7.071e-07
Heightened Def Con from 7.071e-07 ++++++++++++++++++++++to 7.081e-07
Heightened Def Con from 7.081e-07 ++++++++++++++++++++++to 7.091e-07
Heightened Def Con from 7.091e-07 ++++++++++++++++++++++to 7.101e-07
Heightened Def Con from 7.101e-07 ++++++++++++++++++++++to 7.111e-07
Heightened Def Con from 7.111e-07 ++++++++++++++++++++++to 7.121e-07
Heightened Def Con from 7.121e-07 ++++++++++++++++++++++to 7.131e-07
Heightened Def Con from 7.131e-07 ++++++++++++++++++++++to 7.141e-07
Heightened Def Con from 7.141e-07 ++++++++++++++++++++++to 7.151e-07
Heightened Def Con from 7.151e-07 ++++++++++++++++++++++to 7.161e-07
Heightened Def Con from 7.161e-07 ++++++++++++++++++++++to 7.171e-07
Heightened Def Con from 7.171e-07 ++++++++++++++++++++++to 7.181e-07
Heightened Def Con from 7.181e-07 ++++++++++++++++++++++to 7.191e-07
Heightened Def Con from 7.191e-07 ++++++++++++++++++++++to 7.201e-07
Heightened Def Con from 7.201e-07 ++++++++++++++++++++++to 7.211e-07
Heightened Def Con from 7.211e-07 ++++++++++++++++++++++to 7.221e-07
Heightened Def Con from 7.221e-07 ++++++++++++++++++++++to 7.231e-07
Heightened Def Con from 7.231e-07 ++++++++++++++++++++++to 7.241e-07
Heightened Def Con from 7.241e-07 ++++++++++++++++++++++to 7.251e-07
Heightened Def Con from 7.251e-07 ++++++++++++++++++++++to 7.261e-07
Heightened Def Con from 7.261e-07 ++++++++++++++++++++++to 7.271e-07
Heightened Def Con from 7.271e-07 ++++++++++++++++++++++to 7.281e-07
Heightened Def Con from 7.281e-07 ++++++++++++++++++++++to 7.291e-07
Heightened Def Con from 7.291e-07 ++++++++++++++++++++++to 7.301e-07
Heightened Def Con from 7.301e-07 ++++++++++++++++++++++to 7.311e-07
Heightened Def Con from 7.311e-07 ++++++++++++++++++++++to 7.321e-07
Heightened Def Con from 7.321e-07 ++++++++++++++++++++++to 7.331e-07
Heightened Def Con from 7.331e-07 ++++++++++++++++++++++to 7.341e-07
Heightened Def Con from 7.341e-07 ++++++++++++++++++++++to 7.351e-07
Heightened Def Con from 7.351e-07 ++++++++++++++++++++++to 7.361e-07
Heightened Def Con from 7.361e-07 ++++++++++++++++++++++to 7.371e-07
Heightened Def Con from 7.371e-07 ++++++++++++++++++++++to 7.381e-07
Heightened Def Con from 7.381e-07 ++++++++++++++++++++++to 7.391e-07
Heightened Def Con from 7.391e-07 ++++++++++++++++++++++to 7.401e-07
Heightened Def Con from 7.401e-07 ++++++++++++++++++++++to 7.411e-07
Heightened Def Con from 7.411e-07 ++++++++++++++++++++++to 7.421e-07
Heightened Def Con from 7.421e-07 ++++++++++++++++++++++to 7.431e-07
Heightened Def Con from 7.431e-07 ++++++++++++++++++++++to 7.441e-07
Heightened Def Con from 7.441e-07 ++++++++++++++++++++++to 7.451e-07
Heightened Def Con from 7.451e-07 ++++++++++++++++++++++to 7.461e-07
Heightened Def Con from 7.461e-07 ++++++++++++++++++++++to 7.471e-07
Heightened Def Con from 7.471e-07 ++++++++++++++++++++++to 7.481e-07
Heightened Def Con from 7.481e-07 ++++++++++++++++++++++to 7.491e-07
Heightened Def Con from 7.491e-07 ++++++++++++++++++++++to 7.501e-07
Heightened Def Con from 7.501e-07 ++++++++++++++++++++++to 7.511e-07
Heightened Def Con from 7.511e-07 ++++++++++++++++++++++to 7.521e-07
Heightened Def Con from 7.521e-07 ++++++++++++++++++++++to 7.531e-07
Heightened Def Con from 7.531e-07 ++++++++++++++++++++++to 7.541e-07
Heightened Def Con from 7.541e-07 ++++++++++++++++++++++to 7.551e-07
Heightened Def Con from 7.551e-07 ++++++++++++++++++++++to 7.561e-07
Heightened Def Con from 7.561e-07 ++++++++++++++++++++++to 7.571e-07
Heightened Def Con from 7.571e-07 ++++++++++++++++++++++to 7.581e-07
Heightened Def Con from 7.581e-07 ++++++++++++++++++++++to 7.591e-07
Heightened Def Con from 7.591e-07 ++++++++++++++++++++++to 7.601e-07
Heightened Def Con from 7.601e-07 ++++++++++++++++++++++to 7.611e-07
Heightened Def Con from 7.611e-07 ++++++++++++++++++++++to 7.621e-07
Heightened Def Con from 7.621e-07 ++++++++++++++++++++++to 7.631e-07
Heightened Def Con from 7.631e-07 ++++++++++++++++++++++to 7.641e-07
Heightened Def Con from 7.641e-07 ++++++++++++++++++++++to 7.651e-07
Heightened Def Con from 7.651e-07 ++++++++++++++++++++++to 7.661e-07
Heightened Def Con from 7.661e-07 ++++++++++++++++++++++to 7.671e-07
Heightened Def Con from 7.671e-07 ++++++++++++++++++++++to 7.681e-07
Heightened Def Con from 7.681e-07 ++++++++++++++++++++++to 7.691e-07
Heightened Def Con from 7.691e-07 ++++++++++++++++++++++to 7.701e-07
Heightened Def Con from 7.701e-07 ++++++++++++++++++++++to 7.711e-07
Heightened Def Con from 7.711e-07 ++++++++++++++++++++++to 7.721e-07
Heightened Def Con from 7.721e-07 ++++++++++++++++++++++to 7.731e-07
Heightened Def Con from 7.731e-07 ++++++++++++++++++++++to 7.741e-07
Heightened Def Con from 7.741e-07 ++++++++++++++++++++++to 7.751e-07
Heightened Def Con from 7.751e-07 ++++++++++++++++++++++to 7.761e-07
Heightened Def Con from 7.761e-07 ++++++++++++++++++++++to 7.771e-07
Heightened Def Con from 7.771e-07 ++++++++++++++++++++++to 7.781e-07
Heightened Def Con from 7.781e-07 ++++++++++++++++++++++to 7.791e-07
Heightened Def Con from 7.791e-07 ++++++++++++++++++++++to 7.801e-07
Heightened Def Con from 7.801e-07 ++++++++++++++++++++++to 7.811e-07
Heightened Def Con from 7.811e-07 ++++++++++++++++++++++to 7.821e-07
Heightened Def Con from 7.821e-07 ++++++++++++++++++++++to 7.831e-07
Heightened Def Con from 7.831e-07 ++++++++++++++++++++++to 7.841e-07
Heightened Def Con from 7.841e-07 ++++++++++++++++++++++to 7.851e-07
Heightened Def Con from 7.851e-07 ++++++++++++++++++++++to 7.861e-07
Heightened Def Con from 7.861e-07 ++++++++++++++++++++++to 7.871e-07
Heightened Def Con from 7.871e-07 ++++++++++++++++++++++to 7.881e-07
Heightened Def Con from 7.881e-07 ++++++++++++++++++++++to 7.891e-07
Heightened Def Con from 7.891e-07 ++++++++++++++++++++++to 7.901e-07
Heightened Def Con from 7.901e-07 ++++++++++++++++++++++to 7.911e-07
Heightened Def Con from 7.911e-07 ++++++++++++++++++++++to 7.921e-07
Heightened Def Con from 7.921e-07 ++++++++++++++++++++++to 7.931e-07
Heightened Def Con from 7.931e-07 ++++++++++++++++++++++to 7.941e-07
Heightened Def Con from 7.941e-07 ++++++++++++++++++++++to 7.951e-07
Heightened Def Con from 7.951e-07 ++++++++++++++++++++++to 7.961e-07
Heightened Def Con from 7.961e-07 ++++++++++++++++++++++to 7.971e-07
Heightened Def Con from 7.971e-07 ++++++++++++++++++++++to 7.981e-07
Heightened Def Con from 7.981e-07 ++++++++++++++++++++++to 7.991e-07
Heightened Def Con from 7.991e-07 ++++++++++++++++++++++to 8.001e-07
Heightened Def Con from 8.001e-07 ++++++++++++++++++++++to 8.011e-07
Heightened Def Con from 8.011e-07 ++++++++++++++++++++++to 8.021e-07
Heightened Def Con from 8.021e-07 ++++++++++++++++++++++to 8.031e-07
Heightened Def Con from 8.031e-07 ++++++++++++++++++++++to 8.041e-07
Heightened Def Con from 8.041e-07 ++++++++++++++++++++++to 8.051e-07
Heightened Def Con from 8.051e-07 ++++++++++++++++++++++to 8.061e-07
Heightened Def Con from 8.061e-07 ++++++++++++++++++++++to 8.071e-07
Heightened Def Con from 8.071e-07 ++++++++++++++++++++++to 8.081e-07
Heightened Def Con from 8.081e-07 ++++++++++++++++++++++to 8.091e-07
Heightened Def Con from 8.091e-07 ++++++++++++++++++++++to 8.101e-07
Heightened Def Con from 8.101e-07 ++++++++++++++++++++++to 8.111e-07
Heightened Def Con from 8.111e-07 ++++++++++++++++++++++to 8.121e-07
Heightened Def Con from 8.121e-07 ++++++++++++++++++++++to 8.131e-07
Heightened Def Con from 8.131e-07 ++++++++++++++++++++++to 8.141e-07
Heightened Def Con from 8.141e-07 ++++++++++++++++++++++to 8.151e-07
Heightened Def Con from 8.151e-07 ++++++++++++++++++++++to 8.161e-07
Heightened Def Con from 8.161e-07 ++++++++++++++++++++++to 8.171e-07
Heightened Def Con from 8.171e-07 ++++++++++++++++++++++to 8.181e-07
Heightened Def Con from 8.181e-07 ++++++++++++++++++++++to 8.191e-07
Heightened Def Con from 8.191e-07 ++++++++++++++++++++++to 8.201e-07
Heightened Def Con from 8.201e-07 ++++++++++++++++++++++to 8.211e-07
Heightened Def Con from 8.211e-07 ++++++++++++++++++++++to 8.221e-07
Heightened Def Con from 8.221e-07 ++++++++++++++++++++++to 8.231e-07
Heightened Def Con from 8.231e-07 ++++++++++++++++++++++to 8.241e-07
Heightened Def Con from 8.241e-07 ++++++++++++++++++++++to 8.251e-07
Heightened Def Con from 8.251e-07 ++++++++++++++++++++++to 8.261e-07
Heightened Def Con from 8.261e-07 ++++++++++++++++++++++to 8.271e-07
Heightened Def Con from 8.271e-07 ++++++++++++++++++++++to 8.281e-07
Heightened Def Con from 8.281e-07 ++++++++++++++++++++++to 8.291e-07
Heightened Def Con from 8.291e-07 ++++++++++++++++++++++to 8.301e-07
Heightened Def Con from 8.301e-07 ++++++++++++++++++++++to 8.311e-07
Heightened Def Con from 8.311e-07 ++++++++++++++++++++++to 8.321e-07
Heightened Def Con from 8.321e-07 ++++++++++++++++++++++to 8.331e-07
Heightened Def Con from 8.331e-07 ++++++++++++++++++++++to 8.341e-07
Heightened Def Con from 8.341e-07 ++++++++++++++++++++++to 8.351e-07
Heightened Def Con from 8.351e-07 ++++++++++++++++++++++to 8.361e-07
Heightened Def Con from 8.361e-07 ++++++++++++++++++++++to 8.371e-07
Heightened Def Con from 8.371e-07 ++++++++++++++++++++++to 8.381e-07
Heightened Def Con from 8.381e-07 ++++++++++++++++++++++to 8.391e-07
Heightened Def Con from 8.391e-07 ++++++++++++++++++++++to 8.401e-07
Heightened Def Con from 8.401e-07 ++++++++++++++++++++++to 8.411e-07
Heightened Def Con from 8.411e-07 ++++++++++++++++++++++to 8.421e-07
Heightened Def Con from 8.421e-07 ++++++++++++++++++++++to 8.431e-07
Heightened Def Con from 8.431e-07 ++++++++++++++++++++++to 8.441e-07
Heightened Def Con from 8.441e-07 ++++++++++++++++++++++to 8.451e-07
Heightened Def Con from 8.451e-07 ++++++++++++++++++++++to 8.461e-07
Heightened Def Con from 8.461e-07 ++++++++++++++++++++++to 8.471e-07
Heightened Def Con from 8.471e-07 ++++++++++++++++++++++to 8.481e-07
Heightened Def Con from 8.481e-07 ++++++++++++++++++++++to 8.491e-07
Heightened Def Con from 8.491e-07 ++++++++++++++++++++++to 8.501e-07
Heightened Def Con from 8.501e-07 ++++++++++++++++++++++to 8.511e-07
Heightened Def Con from 8.511e-07 ++++++++++++++++++++++to 8.521e-07
Heightened Def Con from 8.521e-07 ++++++++++++++++++++++to 8.531e-07
Heightened Def Con from 8.531e-07 ++++++++++++++++++++++to 8.541e-07
Heightened Def Con from 8.541e-07 ++++++++++++++++++++++to 8.551e-07
Heightened Def Con from 8.551e-07 ++++++++++++++++++++++to 8.561e-07
Heightened Def Con from 8.561e-07 ++++++++++++++++++++++to 8.571e-07
Heightened Def Con from 8.571e-07 ++++++++++++++++++++++to 8.581e-07
Heightened Def Con from 8.581e-07 ++++++++++++++++++++++to 8.591e-07
Heightened Def Con from 8.591e-07 ++++++++++++++++++++++to 8.601e-07
Heightened Def Con from 8.601e-07 ++++++++++++++++++++++to 8.611e-07
Heightened Def Con from 8.611e-07 ++++++++++++++++++++++to 8.621e-07
Heightened Def Con from 8.621e-07 ++++++++++++++++++++++to 8.631e-07
Heightened Def Con from 8.631e-07 ++++++++++++++++++++++to 8.641e-07
Heightened Def Con from 8.641e-07 ++++++++++++++++++++++to 8.651e-07
Heightened Def Con from 8.651e-07 ++++++++++++++++++++++to 8.661e-07
Heightened Def Con from 8.661e-07 ++++++++++++++++++++++to 8.671e-07
Heightened Def Con from 8.671e-07 ++++++++++++++++++++++to 8.681e-07
Heightened Def Con from 8.681e-07 ++++++++++++++++++++++to 8.691e-07
Heightened Def Con from 8.691e-07 ++++++++++++++++++++++to 8.701e-07
Heightened Def Con from 8.701e-07 ++++++++++++++++++++++to 8.711e-07
Heightened Def Con from 8.711e-07 ++++++++++++++++++++++to 8.721e-07
Heightened Def Con from 8.721e-07 ++++++++++++++++++++++to 8.731e-07
Heightened Def Con from 8.731e-07 ++++++++++++++++++++++to 8.741e-07
Heightened Def Con from 8.741e-07 ++++++++++++++++++++++to 8.751e-07
Heightened Def Con from 8.751e-07 ++++++++++++++++++++++to 8.761e-07
Heightened Def Con from 8.761e-07 ++++++++++++++++++++++to 8.771e-07
Heightened Def Con from 8.771e-07 ++++++++++++++++++++++to 8.781e-07
Heightened Def Con from 8.781e-07 ++++++++++++++++++++++to 8.791e-07
Heightened Def Con from 8.791e-07 ++++++++++++++++++++++to 8.801e-07
Heightened Def Con from 8.801e-07 ++++++++++++++++++++++to 8.811e-07
Heightened Def Con from 8.811e-07 ++++++++++++++++++++++to 8.821e-07
Heightened Def Con from 8.821e-07 ++++++++++++++++++++++to 8.831e-07
Heightened Def Con from 8.831e-07 ++++++++++++++++++++++to 8.841e-07
Heightened Def Con from 8.841e-07 ++++++++++++++++++++++to 8.851e-07
Heightened Def Con from 8.851e-07 ++++++++++++++++++++++to 8.861e-07
Heightened Def Con from 8.861e-07 ++++++++++++++++++++++to 8.871e-07
Heightened Def Con from 8.871e-07 ++++++++++++++++++++++to 8.881e-07
Heightened Def Con from 8.881e-07 ++++++++++++++++++++++to 8.891e-07
Heightened Def Con from 8.891e-07 ++++++++++++++++++++++to 8.901e-07
Heightened Def Con from 8.901e-07 ++++++++++++++++++++++to 8.911e-07
Heightened Def Con from 8.911e-07 ++++++++++++++++++++++to 8.921e-07
Heightened Def Con from 8.921e-07 ++++++++++++++++++++++to 8.931e-07
Heightened Def Con from 8.931e-07 ++++++++++++++++++++++to 8.941e-07
Heightened Def Con from 8.941e-07 ++++++++++++++++++++++to 8.951e-07
Heightened Def Con from 8.951e-07 ++++++++++++++++++++++to 8.961e-07
Heightened Def Con from 8.961e-07 ++++++++++++++++++++++to 8.971e-07
Heightened Def Con from 8.971e-07 ++++++++++++++++++++++to 8.981e-07
Heightened Def Con from 8.981e-07 ++++++++++++++++++++++to 8.991e-07
Heightened Def Con from 8.991e-07 ++++++++++++++++++++++to 9.001e-07
Heightened Def Con from 9.001e-07 ++++++++++++++++++++++to 9.011e-07
Heightened Def Con from 9.011e-07 ++++++++++++++++++++++to 9.021e-07
Heightened Def Con from 9.021e-07 ++++++++++++++++++++++to 9.031e-07
Heightened Def Con from 9.031e-07 ++++++++++++++++++++++to 9.041e-07
Heightened Def Con from 9.041e-07 ++++++++++++++++++++++to 9.051e-07
Heightened Def Con from 9.051e-07 ++++++++++++++++++++++to 9.061e-07
Heightened Def Con from 9.061e-07 ++++++++++++++++++++++to 9.071e-07
Heightened Def Con from 9.071e-07 ++++++++++++++++++++++to 9.081e-07
Heightened Def Con from 9.081e-07 ++++++++++++++++++++++to 9.091e-07
Heightened Def Con from 9.091e-07 ++++++++++++++++++++++to 9.101e-07
Heightened Def Con from 9.101e-07 ++++++++++++++++++++++to 9.111e-07
Heightened Def Con from 9.111e-07 ++++++++++++++++++++++to 9.121e-07
Heightened Def Con from 9.121e-07 ++++++++++++++++++++++to 9.131e-07
Heightened Def Con from 9.131e-07 ++++++++++++++++++++++to 9.141e-07
Heightened Def Con from 9.141e-07 ++++++++++++++++++++++to 9.151e-07
Heightened Def Con from 9.151e-07 ++++++++++++++++++++++to 9.161e-07
Heightened Def Con from 9.161e-07 ++++++++++++++++++++++to 9.171e-07
Heightened Def Con from 9.171e-07 ++++++++++++++++++++++to 9.181e-07
Heightened Def Con from 9.181e-07 ++++++++++++++++++++++to 9.191e-07
Heightened Def Con from 9.191e-07 ++++++++++++++++++++++to 9.201e-07
Heightened Def Con from 9.201e-07 ++++++++++++++++++++++to 9.211e-07
Heightened Def Con from 9.211e-07 ++++++++++++++++++++++to 9.221e-07
Heightened Def Con from 9.221e-07 ++++++++++++++++++++++to 9.231e-07
Heightened Def Con from 9.231e-07 ++++++++++++++++++++++to 9.241e-07
Heightened Def Con from 9.241e-07 ++++++++++++++++++++++to 9.251e-07
Heightened Def Con from 9.251e-07 ++++++++++++++++++++++to 9.261e-07
Heightened Def Con from 9.261e-07 ++++++++++++++++++++++to 9.271e-07
Heightened Def Con from 9.271e-07 ++++++++++++++++++++++to 9.281e-07
Heightened Def Con from 9.281e-07 ++++++++++++++++++++++to 9.291e-07
Heightened Def Con from 9.291e-07 ++++++++++++++++++++++to 9.301e-07
Heightened Def Con from 9.301e-07 ++++++++++++++++++++++to 9.311e-07
Heightened Def Con from 9.311e-07 ++++++++++++++++++++++to 9.321e-07
Heightened Def Con from 9.321e-07 ++++++++++++++++++++++to 9.331e-07
Heightened Def Con from 9.331e-07 ++++++++++++++++++++++to 9.341e-07
Heightened Def Con from 9.341e-07 ++++++++++++++++++++++to 9.351e-07
Heightened Def Con from 9.351e-07 ++++++++++++++++++++++to 9.361e-07
Heightened Def Con from 9.361e-07 ++++++++++++++++++++++to 9.371e-07
Heightened Def Con from 9.371e-07 ++++++++++++++++++++++to 9.381e-07
Heightened Def Con from 9.381e-07 ++++++++++++++++++++++to 9.391e-07
Heightened Def Con from 9.391e-07 ++++++++++++++++++++++to 9.401e-07
Heightened Def Con from 9.401e-07 ++++++++++++++++++++++to 9.411e-07
Heightened Def Con from 9.411e-07 ++++++++++++++++++++++to 9.421e-07
Heightened Def Con from 9.421e-07 ++++++++++++++++++++++to 9.431e-07
Heightened Def Con from 9.431e-07 ++++++++++++++++++++++to 9.441e-07
Heightened Def Con from 9.441e-07 ++++++++++++++++++++++to 9.451e-07
Heightened Def Con from 9.451e-07 ++++++++++++++++++++++to 9.461e-07
Heightened Def Con from 9.461e-07 ++++++++++++++++++++++to 9.471e-07
Heightened Def Con from 9.471e-07 ++++++++++++++++++++++to 9.481e-07
Heightened Def Con from 9.481e-07 ++++++++++++++++++++++to 9.491e-07
Heightened Def Con from 9.491e-07 ++++++++++++++++++++++to 9.501e-07
Heightened Def Con from 9.501e-07 ++++++++++++++++++++++to 9.511e-07
Heightened Def Con from 9.511e-07 ++++++++++++++++++++++to 9.521e-07
Heightened Def Con from 9.521e-07 ++++++++++++++++++++++to 9.531e-07
Heightened Def Con from 9.531e-07 ++++++++++++++++++++++to 9.541e-07
Heightened Def Con from 9.541e-07 ++++++++++++++++++++++to 9.551e-07
Heightened Def Con from 9.551e-07 ++++++++++++++++++++++to 9.561e-07
Heightened Def Con from 9.561e-07 ++++++++++++++++++++++to 9.571e-07
Heightened Def Con from 9.571e-07 ++++++++++++++++++++++to 9.581e-07
Heightened Def Con from 9.581e-07 ++++++++++++++++++++++to 9.591e-07
Heightened Def Con from 9.591e-07 ++++++++++++++++++++++to 9.601e-07
Heightened Def Con from 9.601e-07 ++++++++++++++++++++++to 9.611e-07
Heightened Def Con from 9.611e-07 ++++++++++++++++++++++to 9.621e-07
Heightened Def Con from 9.621e-07 ++++++++++++++++++++++to 9.631e-07
Heightened Def Con from 9.631e-07 ++++++++++++++++++++++to 9.641e-07
Heightened Def Con from 9.641e-07 ++++++++++++++++++++++to 9.651e-07
Heightened Def Con from 9.651e-07 ++++++++++++++++++++++to 9.661e-07
Heightened Def Con from 9.661e-07 ++++++++++++++++++++++to 9.671e-07
Heightened Def Con from 9.671e-07 ++++++++++++++++++++++to 9.681e-07
Heightened Def Con from 9.681e-07 ++++++++++++++++++++++to 9.691e-07
Heightened Def Con from 9.691e-07 ++++++++++++++++++++++to 9.701e-07
Heightened Def Con from 9.701e-07 ++++++++++++++++++++++to 9.711e-07
Heightened Def Con from 9.711e-07 ++++++++++++++++++++++to 9.721e-07
Heightened Def Con from 9.721e-07 ++++++++++++++++++++++to 9.731e-07
Heightened Def Con from 9.731e-07 ++++++++++++++++++++++to 9.741e-07
Heightened Def Con from 9.741e-07 ++++++++++++++++++++++to 9.751e-07
Heightened Def Con from 9.751e-07 ++++++++++++++++++++++to 9.761e-07
Heightened Def Con from 9.761e-07 ++++++++++++++++++++++to 9.771e-07
Heightened Def Con from 9.771e-07 ++++++++++++++++++++++to 9.781e-07
Heightened Def Con from 9.781e-07 ++++++++++++++++++++++to 9.791e-07
Heightened Def Con from 9.791e-07 ++++++++++++++++++++++to 9.801e-07
Heightened Def Con from 9.801e-07 ++++++++++++++++++++++to 9.811e-07
Heightened Def Con from 9.811e-07 ++++++++++++++++++++++to 9.821e-07
Heightened Def Con from 9.821e-07 ++++++++++++++++++++++to 9.831e-07
Heightened Def Con from 9.831e-07 ++++++++++++++++++++++to 9.841e-07
Heightened Def Con from 9.841e-07 ++++++++++++++++++++++to 9.851e-07
Heightened Def Con from 9.851e-07 ++++++++++++++++++++++to 9.861e-07
Heightened Def Con from 9.861e-07 ++++++++++++++++++++++to 9.871e-07
Heightened Def Con from 9.871e-07 ++++++++++++++++++++++to 9.881e-07
Heightened Def Con from 9.881e-07 ++++++++++++++++++++++to 9.891e-07
Heightened Def Con from 9.891e-07 ++++++++++++++++++++++to 9.901e-07
Heightened Def Con from 9.901e-07 ++++++++++++++++++++++to 9.911e-07
Heightened Def Con from 9.911e-07 ++++++++++++++++++++++to 9.921e-07
Heightened Def Con from 9.921e-07 ++++++++++++++++++++++to 9.931e-07
Heightened Def Con from 9.931e-07 ++++++++++++++++++++++to 9.941e-07
Heightened Def Con from 9.941e-07 ++++++++++++++++++++++to 9.951e-07
Heightened Def Con from 9.951e-07 ++++++++++++++++++++++to 9.961e-07
Heightened Def Con from 9.961e-07 ++++++++++++++++++++++to 9.971e-07
Heightened Def Con from 9.971e-07 ++++++++++++++++++++++to 9.981e-07
Heightened Def Con from 9.981e-07 ++++++++++++++++++++++to 9.991e-07
Heightened Def Con from 9.991e-07 ++++++++++++++++++++++to 1.0001e-06
Heightened Def Con from 1.0001e-06 ++++++++++++++++++++++to 1.0011e-06
Heightened Def Con from 1.0011e-06 ++++++++++++++++++++++to 1.0021e-06
Heightened Def Con from 1.0021e-06 ++++++++++++++++++++++to 1.0031e-06
Heightened Def Con from 1.0031e-06 ++++++++++++++++++++++to 1.0041e-06
Heightened Def Con from 1.0041e-06 ++++++++++++++++++++++to 1.0051e-06
Heightened Def Con from 1.0051e-06 ++++++++++++++++++++++to 1.0061e-06
Heightened Def Con from 1.0061e-06 ++++++++++++++++++++++to 1.0071e-06
Heightened Def Con from 1.0071e-06 ++++++++++++++++++++++to 1.0081e-06
Heightened Def Con from 1.0081e-06 ++++++++++++++++++++++to 1.0091e-06
Heightened Def Con from 1.0091e-06 ++++++++++++++++++++++to 1.0101e-06
Heightened Def Con from 1.0101e-06 ++++++++++++++++++++++to 1.0111e-06
Heightened Def Con from 1.0111e-06 ++++++++++++++++++++++to 1.0121e-06
Heightened Def Con from 1.0121e-06 ++++++++++++++++++++++to 1.0131e-06
Heightened Def Con from 1.0131e-06 ++++++++++++++++++++++to 1.0141e-06
Heightened Def Con from 1.0141e-06 ++++++++++++++++++++++to 1.0151e-06
Heightened Def Con from 1.0151e-06 ++++++++++++++++++++++to 1.0161e-06
Heightened Def Con from 1.0161e-06 ++++++++++++++++++++++to 1.0171e-06
Heightened Def Con from 1.0171e-06 ++++++++++++++++++++++to 1.0181e-06
Heightened Def Con from 1.0181e-06 ++++++++++++++++++++++to 1.0191e-06
Heightened Def Con from 1.0191e-06 ++++++++++++++++++++++to 1.0201e-06
Heightened Def Con from 1.0201e-06 ++++++++++++++++++++++to 1.0211e-06
Heightened Def Con from 1.0211e-06 ++++++++++++++++++++++to 1.0221e-06
Heightened Def Con from 1.0221e-06 ++++++++++++++++++++++to 1.0231e-06
Heightened Def Con from 1.0231e-06 ++++++++++++++++++++++to 1.0241e-06
Heightened Def Con from 1.0241e-06 ++++++++++++++++++++++to 1.0251e-06
Heightened Def Con from 1.0251e-06 ++++++++++++++++++++++to 1.0261e-06
Heightened Def Con from 1.0261e-06 ++++++++++++++++++++++to 1.0271e-06
Heightened Def Con from 1.0271e-06 ++++++++++++++++++++++to 1.0281e-06
Heightened Def Con from 1.0281e-06 ++++++++++++++++++++++to 1.0291e-06
Heightened Def Con from 1.0291e-06 ++++++++++++++++++++++to 1.0301e-06
Heightened Def Con from 1.0301e-06 ++++++++++++++++++++++to 1.0311e-06
Heightened Def Con from 1.0311e-06 ++++++++++++++++++++++to 1.0321e-06
Heightened Def Con from 1.0321e-06 ++++++++++++++++++++++to 1.0331e-06
Heightened Def Con from 1.0331e-06 ++++++++++++++++++++++to 1.0341e-06
Heightened Def Con from 1.0341e-06 ++++++++++++++++++++++to 1.0351e-06
Heightened Def Con from 1.0351e-06 ++++++++++++++++++++++to 1.0361e-06
Heightened Def Con from 1.0361e-06 ++++++++++++++++++++++to 1.0371e-06
Heightened Def Con from 1.0371e-06 ++++++++++++++++++++++to 1.0381e-06
Heightened Def Con from 1.0381e-06 ++++++++++++++++++++++to 1.0391e-06
Heightened Def Con from 1.0391e-06 ++++++++++++++++++++++to 1.0401e-06
Heightened Def Con from 1.0401e-06 ++++++++++++++++++++++to 1.0411e-06
Heightened Def Con from 1.0411e-06 ++++++++++++++++++++++to 1.0421e-06
Heightened Def Con from 1.0421e-06 ++++++++++++++++++++++to 1.0431e-06
Heightened Def Con from 1.0431e-06 ++++++++++++++++++++++to 1.0441e-06
Heightened Def Con from 1.0441e-06 ++++++++++++++++++++++to 1.0451e-06
Heightened Def Con from 1.0451e-06 ++++++++++++++++++++++to 1.0461e-06
Heightened Def Con from 1.0461e-06 ++++++++++++++++++++++to 1.0471e-06
Heightened Def Con from 1.0471e-06 ++++++++++++++++++++++to 1.0481e-06
Heightened Def Con from 1.0481e-06 ++++++++++++++++++++++to 1.0491e-06
Heightened Def Con from 1.0491e-06 ++++++++++++++++++++++to 1.0501e-06
Heightened Def Con from 1.0501e-06 ++++++++++++++++++++++to 1.0511e-06
Heightened Def Con from 1.0511e-06 ++++++++++++++++++++++to 1.0521e-06
Heightened Def Con from 1.0521e-06 ++++++++++++++++++++++to 1.0531e-06
Heightened Def Con from 1.0531e-06 ++++++++++++++++++++++to 1.0541e-06
Heightened Def Con from 1.0541e-06 ++++++++++++++++++++++to 1.0551e-06
Heightened Def Con from 1.0551e-06 ++++++++++++++++++++++to 1.0561e-06
Heightened Def Con from 1.0561e-06 ++++++++++++++++++++++to 1.0571e-06
Heightened Def Con from 1.0571e-06 ++++++++++++++++++++++to 1.0581e-06
Heightened Def Con from 1.0581e-06 ++++++++++++++++++++++to 1.0591e-06
Heightened Def Con from 1.0591e-06 ++++++++++++++++++++++to 1.0601e-06
Heightened Def Con from 1.0601e-06 ++++++++++++++++++++++to 1.0611e-06
Heightened Def Con from 1.0611e-06 ++++++++++++++++++++++to 1.0621e-06
Heightened Def Con from 1.0621e-06 ++++++++++++++++++++++to 1.0631e-06
Heightened Def Con from 1.0631e-06 ++++++++++++++++++++++to 1.0641e-06
Heightened Def Con from 1.0641e-06 ++++++++++++++++++++++to 1.0651e-06
Heightened Def Con from 1.0651e-06 ++++++++++++++++++++++to 1.0661e-06
Heightened Def Con from 1.0661e-06 ++++++++++++++++++++++to 1.0671e-06
Heightened Def Con from 1.0671e-06 ++++++++++++++++++++++to 1.0681e-06
Heightened Def Con from 1.0681e-06 ++++++++++++++++++++++to 1.0691e-06
Heightened Def Con from 1.0691e-06 ++++++++++++++++++++++to 1.0701e-06
Heightened Def Con from 1.0701e-06 ++++++++++++++++++++++to 1.0711e-06
Heightened Def Con from 1.0711e-06 ++++++++++++++++++++++to 1.0721e-06
Heightened Def Con from 1.0721e-06 ++++++++++++++++++++++to 1.0731e-06
Heightened Def Con from 1.0731e-06 ++++++++++++++++++++++to 1.0741e-06
Heightened Def Con from 1.0741e-06 ++++++++++++++++++++++to 1.0751e-06
Heightened Def Con from 1.0751e-06 ++++++++++++++++++++++to 1.0761e-06
Heightened Def Con from 1.0761e-06 ++++++++++++++++++++++to 1.0771e-06
Heightened Def Con from 1.0771e-06 ++++++++++++++++++++++to 1.0781e-06
Heightened Def Con from 1.0781e-06 ++++++++++++++++++++++to 1.0791e-06
Heightened Def Con from 1.0791e-06 ++++++++++++++++++++++to 1.0801e-06
Heightened Def Con from 1.0801e-06 ++++++++++++++++++++++to 1.0811e-06
Heightened Def Con from 1.0811e-06 ++++++++++++++++++++++to 1.0821e-06
Heightened Def Con from 1.0821e-06 ++++++++++++++++++++++to 1.0831e-06
Heightened Def Con from 1.0831e-06 ++++++++++++++++++++++to 1.0841e-06
Heightened Def Con from 1.0841e-06 ++++++++++++++++++++++to 1.0851e-06
Heightened Def Con from 1.0851e-06 ++++++++++++++++++++++to 1.0861e-06
Heightened Def Con from 1.0861e-06 ++++++++++++++++++++++to 1.0871e-06
Heightened Def Con from 1.0871e-06 ++++++++++++++++++++++to 1.0881e-06
Heightened Def Con from 1.0881e-06 ++++++++++++++++++++++to 1.0891e-06
Heightened Def Con from 1.0891e-06 ++++++++++++++++++++++to 1.0901e-06
Heightened Def Con from 1.0901e-06 ++++++++++++++++++++++to 1.0911e-06
Heightened Def Con from 1.0911e-06 ++++++++++++++++++++++to 1.0921e-06
Heightened Def Con from 1.0921e-06 ++++++++++++++++++++++to 1.0931e-06
Heightened Def Con from 1.0931e-06 ++++++++++++++++++++++to 1.0941e-06
Heightened Def Con from 1.0941e-06 ++++++++++++++++++++++to 1.0951e-06
Heightened Def Con from 1.0951e-06 ++++++++++++++++++++++to 1.0961e-06
Heightened Def Con from 1.0961e-06 ++++++++++++++++++++++to 1.0971e-06
Heightened Def Con from 1.0971e-06 ++++++++++++++++++++++to 1.0981e-06
Heightened Def Con from 1.0981e-06 ++++++++++++++++++++++to 1.0991e-06
Heightened Def Con from 1.0991e-06 ++++++++++++++++++++++to 1.1001e-06
Heightened Def Con from 1.1001e-06 ++++++++++++++++++++++to 1.1011e-06
Heightened Def Con from 1.1011e-06 ++++++++++++++++++++++to 1.1021e-06
Heightened Def Con from 1.1021e-06 ++++++++++++++++++++++to 1.1031e-06
Heightened Def Con from 1.1031e-06 ++++++++++++++++++++++to 1.1041e-06
Heightened Def Con from 1.1041e-06 ++++++++++++++++++++++to 1.1051e-06
Heightened Def Con from 1.1051e-06 ++++++++++++++++++++++to 1.1061e-06
Heightened Def Con from 1.1061e-06 ++++++++++++++++++++++to 1.1071e-06
Heightened Def Con from 1.1071e-06 ++++++++++++++++++++++to 1.1081e-06
Heightened Def Con from 1.1081e-06 ++++++++++++++++++++++to 1.1091e-06
Heightened Def Con from 1.1091e-06 ++++++++++++++++++++++to 1.1101e-06
Heightened Def Con from 1.1101e-06 ++++++++++++++++++++++to 1.1111e-06
Heightened Def Con from 1.1111e-06 ++++++++++++++++++++++to 1.1121e-06
Heightened Def Con from 1.1121e-06 ++++++++++++++++++++++to 1.1131e-06
Heightened Def Con from 1.1131e-06 ++++++++++++++++++++++to 1.1141e-06
Heightened Def Con from 1.1141e-06 ++++++++++++++++++++++to 1.1151e-06
Heightened Def Con from 1.1151e-06 ++++++++++++++++++++++to 1.1161e-06
Heightened Def Con from 1.1161e-06 ++++++++++++++++++++++to 1.1171e-06
Heightened Def Con from 1.1171e-06 ++++++++++++++++++++++to 1.1181e-06
Heightened Def Con from 1.1181e-06 ++++++++++++++++++++++to 1.1191e-06
Heightened Def Con from 1.1191e-06 ++++++++++++++++++++++to 1.1201e-06
Heightened Def Con from 1.1201e-06 ++++++++++++++++++++++to 1.1211e-06
Heightened Def Con from 1.1211e-06 ++++++++++++++++++++++to 1.1221e-06
Heightened Def Con from 1.1221e-06 ++++++++++++++++++++++to 1.1231e-06
Heightened Def Con from 1.1231e-06 ++++++++++++++++++++++to 1.1241e-06
Heightened Def Con from 1.1241e-06 ++++++++++++++++++++++to 1.1251e-06
Heightened Def Con from 1.1251e-06 ++++++++++++++++++++++to 1.1261e-06
Heightened Def Con from 1.1261e-06 ++++++++++++++++++++++to 1.1271e-06
Heightened Def Con from 1.1271e-06 ++++++++++++++++++++++to 1.1281e-06
Heightened Def Con from 1.1281e-06 ++++++++++++++++++++++to 1.1291e-06
Heightened Def Con from 1.1291e-06 ++++++++++++++++++++++to 1.1301e-06
Heightened Def Con from 1.1301e-06 ++++++++++++++++++++++to 1.1311e-06
Heightened Def Con from 1.1311e-06 ++++++++++++++++++++++to 1.1321e-06
Heightened Def Con from 1.1321e-06 ++++++++++++++++++++++to 1.1331e-06
Heightened Def Con from 1.1331e-06 ++++++++++++++++++++++to 1.1341e-06
Heightened Def Con from 1.1341e-06 ++++++++++++++++++++++to 1.1351e-06
Heightened Def Con from 1.1351e-06 ++++++++++++++++++++++to 1.1361e-06
Heightened Def Con from 1.1361e-06 ++++++++++++++++++++++to 1.1371e-06
Heightened Def Con from 1.1371e-06 ++++++++++++++++++++++to 1.1381e-06
Heightened Def Con from 1.1381e-06 ++++++++++++++++++++++to 1.1391e-06
Heightened Def Con from 1.1391e-06 ++++++++++++++++++++++to 1.1401e-06
Heightened Def Con from 1.1401e-06 ++++++++++++++++++++++to 1.1411e-06
Heightened Def Con from 1.1411e-06 ++++++++++++++++++++++to 1.1421e-06
Heightened Def Con from 1.1421e-06 ++++++++++++++++++++++to 1.1431e-06
Heightened Def Con from 1.1431e-06 ++++++++++++++++++++++to 1.1441e-06
Heightened Def Con from 1.1441e-06 ++++++++++++++++++++++to 1.1451e-06
Heightened Def Con from 1.1451e-06 ++++++++++++++++++++++to 1.1461e-06
Heightened Def Con from 1.1461e-06 ++++++++++++++++++++++to 1.1471e-06
Heightened Def Con from 1.1471e-06 ++++++++++++++++++++++to 1.1481e-06
Heightened Def Con from 1.1481e-06 ++++++++++++++++++++++to 1.1491e-06
Heightened Def Con from 1.1491e-06 ++++++++++++++++++++++to 1.1501e-06
Heightened Def Con from 1.1501e-06 ++++++++++++++++++++++to 1.1511e-06
Heightened Def Con from 1.1511e-06 ++++++++++++++++++++++to 1.1521e-06
Heightened Def Con from 1.1521e-06 ++++++++++++++++++++++to 1.1531e-06
Heightened Def Con from 1.1531e-06 ++++++++++++++++++++++to 1.1541e-06
Heightened Def Con from 1.1541e-06 ++++++++++++++++++++++to 1.1551e-06
Heightened Def Con from 1.1551e-06 ++++++++++++++++++++++to 1.1561e-06
Heightened Def Con from 1.1561e-06 ++++++++++++++++++++++to 1.1571e-06
Heightened Def Con from 1.1571e-06 ++++++++++++++++++++++to 1.1581e-06
Heightened Def Con from 1.1581e-06 ++++++++++++++++++++++to 1.1591e-06
Heightened Def Con from 1.1591e-06 ++++++++++++++++++++++to 1.1601e-06
Heightened Def Con from 1.1601e-06 ++++++++++++++++++++++to 1.1611e-06
Heightened Def Con from 1.1611e-06 ++++++++++++++++++++++to 1.1621e-06
Heightened Def Con from 1.1621e-06 ++++++++++++++++++++++to 1.1631e-06
Heightened Def Con from 1.1631e-06 ++++++++++++++++++++++to 1.1641e-06
Heightened Def Con from 1.1641e-06 ++++++++++++++++++++++to 1.1651e-06
Heightened Def Con from 1.1651e-06 ++++++++++++++++++++++to 1.1661e-06
Heightened Def Con from 1.1661e-06 ++++++++++++++++++++++to 1.1671e-06
Heightened Def Con from 1.1671e-06 ++++++++++++++++++++++to 1.1681e-06
Heightened Def Con from 1.1681e-06 ++++++++++++++++++++++to 1.1691e-06
Heightened Def Con from 1.1691e-06 ++++++++++++++++++++++to 1.1701e-06
Heightened Def Con from 1.1701e-06 ++++++++++++++++++++++to 1.1711e-06
Heightened Def Con from 1.1711e-06 ++++++++++++++++++++++to 1.1721e-06
Heightened Def Con from 1.1721e-06 ++++++++++++++++++++++to 1.1731e-06
Heightened Def Con from 1.1731e-06 ++++++++++++++++++++++to 1.1741e-06
Heightened Def Con from 1.1741e-06 ++++++++++++++++++++++to 1.1751e-06
Heightened Def Con from 1.1751e-06 ++++++++++++++++++++++to 1.1761e-06
Heightened Def Con from 1.1761e-06 ++++++++++++++++++++++to 1.1771e-06
Heightened Def Con from 1.1771e-06 ++++++++++++++++++++++to 1.1781e-06
Heightened Def Con from 1.1781e-06 ++++++++++++++++++++++to 1.1791e-06
Heightened Def Con from 1.1791e-06 ++++++++++++++++++++++to 1.1801e-06
Heightened Def Con from 1.1801e-06 ++++++++++++++++++++++to 1.1811e-06
Heightened Def Con from 1.1811e-06 ++++++++++++++++++++++to 1.1821e-06
Heightened Def Con from 1.1821e-06 ++++++++++++++++++++++to 1.1831e-06
Heightened Def Con from 1.1831e-06 ++++++++++++++++++++++to 1.1841e-06
Heightened Def Con from 1.1841e-06 ++++++++++++++++++++++to 1.1851e-06
Heightened Def Con from 1.1851e-06 ++++++++++++++++++++++to 1.1861e-06
Heightened Def Con from 1.1861e-06 ++++++++++++++++++++++to 1.1871e-06
Heightened Def Con from 1.1871e-06 ++++++++++++++++++++++to 1.1881e-06
Heightened Def Con from 1.1881e-06 ++++++++++++++++++++++to 1.1891e-06
Heightened Def Con from 1.1891e-06 ++++++++++++++++++++++to 1.1901e-06
Heightened Def Con from 1.1901e-06 ++++++++++++++++++++++to 1.1911e-06
Heightened Def Con from 1.1911e-06 ++++++++++++++++++++++to 1.1921e-06
Heightened Def Con from 1.1921e-06 ++++++++++++++++++++++to 1.1931e-06
Heightened Def Con from 1.1931e-06 ++++++++++++++++++++++to 1.1941e-06
Heightened Def Con from 1.1941e-06 ++++++++++++++++++++++to 1.1951e-06
Heightened Def Con from 1.1951e-06 ++++++++++++++++++++++to 1.1961e-06
Heightened Def Con from 1.1961e-06 ++++++++++++++++++++++to 1.1971e-06
Heightened Def Con from 1.1971e-06 ++++++++++++++++++++++to 1.1981e-06
Heightened Def Con from 1.1981e-06 ++++++++++++++++++++++to 1.1991e-06
Heightened Def Con from 1.1991e-06 ++++++++++++++++++++++to 1.2001e-06
Heightened Def Con from 1.2001e-06 ++++++++++++++++++++++to 1.2011e-06
Heightened Def Con from 1.2011e-06 ++++++++++++++++++++++to 1.2021e-06
Heightened Def Con from 1.2021e-06 ++++++++++++++++++++++to 1.2031e-06
Heightened Def Con from 1.2031e-06 ++++++++++++++++++++++to 1.2041e-06
Heightened Def Con from 1.2041e-06 ++++++++++++++++++++++to 1.2051e-06
Heightened Def Con from 1.2051e-06 ++++++++++++++++++++++to 1.2061e-06
Heightened Def Con from 1.2061e-06 ++++++++++++++++++++++to 1.2071e-06
Heightened Def Con from 1.2071e-06 ++++++++++++++++++++++to 1.2081e-06
Heightened Def Con from 1.2081e-06 ++++++++++++++++++++++to 1.2091e-06
Heightened Def Con from 1.2091e-06 ++++++++++++++++++++++to 1.2101e-06
Heightened Def Con from 1.2101e-06 ++++++++++++++++++++++to 1.2111e-06
Heightened Def Con from 1.2111e-06 ++++++++++++++++++++++to 1.2121e-06
Heightened Def Con from 1.2121e-06 ++++++++++++++++++++++to 1.2131e-06
Heightened Def Con from 1.2131e-06 ++++++++++++++++++++++to 1.2141e-06
Heightened Def Con from 1.2141e-06 ++++++++++++++++++++++to 1.2151e-06
Heightened Def Con from 1.2151e-06 ++++++++++++++++++++++to 1.2161e-06
Heightened Def Con from 1.2161e-06 ++++++++++++++++++++++to 1.2171e-06
Heightened Def Con from 1.2171e-06 ++++++++++++++++++++++to 1.2181e-06
Heightened Def Con from 1.2181e-06 ++++++++++++++++++++++to 1.2191e-06
Heightened Def Con from 1.2191e-06 ++++++++++++++++++++++to 1.2201e-06
Heightened Def Con from 1.2201e-06 ++++++++++++++++++++++to 1.2211e-06
Heightened Def Con from 1.2211e-06 ++++++++++++++++++++++to 1.2221e-06
Heightened Def Con from 1.2221e-06 ++++++++++++++++++++++to 1.2231e-06
Heightened Def Con from 1.2231e-06 ++++++++++++++++++++++to 1.2241e-06
Heightened Def Con from 1.2241e-06 ++++++++++++++++++++++to 1.2251e-06
Heightened Def Con from 1.2251e-06 ++++++++++++++++++++++to 1.2261e-06
Heightened Def Con from 1.2261e-06 ++++++++++++++++++++++to 1.2271e-06
Heightened Def Con from 1.2271e-06 ++++++++++++++++++++++to 1.2281e-06
Heightened Def Con from 1.2281e-06 ++++++++++++++++++++++to 1.2291e-06
Heightened Def Con from 1.2291e-06 ++++++++++++++++++++++to 1.2301e-06
Heightened Def Con from 1.2301e-06 ++++++++++++++++++++++to 1.2311e-06
Heightened Def Con from 1.2311e-06 ++++++++++++++++++++++to 1.2321e-06
Heightened Def Con from 1.2321e-06 ++++++++++++++++++++++to 1.2331e-06
Heightened Def Con from 1.2331e-06 ++++++++++++++++++++++to 1.2341e-06
Heightened Def Con from 1.2341e-06 ++++++++++++++++++++++to 1.2351e-06
Heightened Def Con from 1.2351e-06 ++++++++++++++++++++++to 1.2361e-06
Heightened Def Con from 1.2361e-06 ++++++++++++++++