LTspice 24.0.12 for Windows
Circuit: * C:\Users\HP\Desktop\Sem5\VD\lab file\NAND.asc
Start Time: Tue Nov  5 18:52:27 2024
solver = Normal
Maximum thread count: 8
tnom = 27
temp = 27
method = modified trap
Instance "m1": Length shorter than recommended for a level 1 MOSFET.
Instance "m1": Width narrower than recommended for a level 1 MOSFET.
Instance "m4": Length shorter than recommended for a level 1 MOSFET.
Instance "m4": Width narrower than recommended for a level 1 MOSFET.
Instance "m5": Length shorter than recommended for a level 1 MOSFET.
Instance "m5": Width narrower than recommended for a level 1 MOSFET.
Direct Newton iteration for .op point succeeded.
Changing Tseed to 5e-10
Changing Tseed to 5e-12
Changing Tseed to 5e-09
Total elapsed time: 0.084 seconds.

