LTspice 24.0.12 for Windows
Circuit: * C:\Users\HP\Desktop\Sem5\VD\lab file\NMOSvtc.asc
Start Time: Tue Nov  5 00:48:48 2024
solver = Normal
Maximum thread count: 8
tnom = 27
temp = 27
method = modified trap
WARNING: Node N003 is floating.

Instance "m1": Length shorter than recommended for a level 1 MOSFET.
Instance "m1": Width narrower than recommended for a level 1 MOSFET.
.dc sweep increment has wrong sign -- fixing...
.dc sweep increment has wrong sign -- fixing...
.OP point found by inspection.
.step v2=0
.step v2=-0.2
.step v2=-0.4
.step v2=-0.6
.step v2=-0.8
.step v2=-1
.step v2=-1.2
.step v2=-1.4
.step v2=-1.6
.step v2=-1.8
Total elapsed time: 0.319 seconds.

