LTspice 24.0.12 for Windows
Circuit: * C:\Users\HP\Desktop\Sem5\VD\lab file\NOR.asc
Start Time: Tue Nov  5 19:10:31 2024
solver = Normal
Maximum thread count: 8
tnom = 27
temp = 27
method = modified trap
WARNING: Node N002 is floating.
WARNING: Node N005 is floating.
WARNING: Node N010 is floating.
WARNING: Node N011 is floating.
WARNING: Node N006 is floating.
WARNING: Node N009 is floating.

Direct Newton iteration for .op point succeeded.
Total elapsed time: 0.169 seconds.

