LTspice 24.0.12 for Windows
Circuit: * C:\Users\HP\Desktop\Sem5\VD\LTSPICE SIMULATIONS\RSLATCH.asc
Start Time: Sat Nov  9 07:28:15 2024
solver = Normal
Maximum thread count: 8
tnom = 27
temp = 27
method = modified trap
WARNING: Node N002 is floating.
WARNING: Node N005 is floating.
WARNING: Node N006 is floating.
WARNING: Node N007 is floating.
WARNING: Node N009 is floating.
WARNING: Node N011 is floating.
WARNING: Node N013 is floating.
WARNING: Node N014 is floating.

Direct Newton iteration for .op point succeeded.
Total elapsed time: 0.146 seconds.

