LTspice 24.0.12 for Windows
Circuit: * C:\Users\HP\Desktop\Sem5\VD\lab file\XOR.asc
Start Time: Tue Nov  5 02:13:48 2024
solver = Normal
Maximum thread count: 8
tnom = 27
temp = 27
method = modified trap
WARNING: Node N002 is floating.
WARNING: Node N003 is floating.
WARNING: Node N008 is floating.
WARNING: Node N009 is floating.
WARNING: Node N014 is floating.
WARNING: Node N018 is floating.
WARNING: Node N015 is floating.
WARNING: Node N019 is floating.

Direct Newton iteration for .op point succeeded.
Heightened Def Con from 0.06 to 0.06
Heightened Def Con from 0.06 to 0.06
Heightened Def Con from 0.06 to 0.06
Heightened Def Con from 0.06 to 0.06
Heightened Def Con from 0.06 to 0.06
Heightened Def Con from 0.06 to 0.06
Heightened Def Con from 0.06 to 0.06
Heightened Def Con from 0.06 to 0.06
Heightened Def Con from 0.06 to 0.06
Heightened Def Con from 0.06 to 0.06
Heightened Def Con from 0.06 to 0.06
Heightened Def Con from 0.06 to 0.06
Total elapsed time: 0.243 seconds.

