LTspice 24.0.12 for Windows
Circuit: * C:\Users\HP\Desktop\Sem5\VD\lab file\XOR.asc
Start Time: Tue Nov  5 02:11:17 2024
solver = Normal
Maximum thread count: 8
tnom = 27
temp = 27
method = modified trap
WARNING: Node N002 is floating.
WARNING: Node N003 is floating.
WARNING: Node N009 is floating.
WARNING: Node N010 is floating.
WARNING: Node N014 is floating.
WARNING: Node N018 is floating.
WARNING: Node N015 is floating.
WARNING: Node N019 is floating.

Direct Newton iteration failed to find .op point.  (Use ".option noopiter" to skip.)
Starting Gmin stepping
Gmin = 10
Gmin = 1.07374
Gmin = 0.115292
Gmin = 0.0123794
Gmin = 0.00132923
Gmin = 0.000142725
Gmin = 1.5325e-05
Gmin = 1.6455e-06
Gmin = 1.76685e-07
Gmin = 1.89714e-08
Gmin = 2.03704e-09
Gmin = 2.18725e-10
Gmin = 2.34854e-11
Gmin = 2.52173e-12
Gmin = 2.70769e-13
Gmin = 0
Gmin stepping succeeded in finding the operating point.

Changing Tseed to 5e-10
Changing Tseed to 5e-12
Changing Tseed to 5e-09
Changing Tseed to 5e-13
Heightened Def Con from 0.02 to 0.02
Heightened Def Con from 0.02 to 0.02
Heightened Def Con from 0.02 to 0.02
Heightened Def Con from 0.02 to 0.02
Heightened Def Con from 0.02 to 0.02
Heightened Def Con from 0.02 to 0.02
Heightened Def Con from 0.02 to 0.02
Heightened Def Con from 0.02 to 0.02
Heightened Def Con from 0.02 to 0.02
Heightened Def Con from 0.02 to 0.02
Heightened Def Con from 0.02 to 0.02
Heightened Def Con from 0.02 to 0.02
Heightened Def Con from 0.04 +++++++++++++++++++to 0.04
Heightened Def Con from 0.04 ++++++++to 0.04
Heightened Def Con from 0.04 to 0.04
Total elapsed time: 0.225 seconds.

